10
gdb 8977	4.66164	1.00856	0.82917	2.1258	74.01	-0.2686	-0.1206	0.148	1241.1403	0.056957	-380.091854	-380.083936	-380.082991	-380.125051	26.496	
O	-0.8961768149	 1.5040117932	 0.1571478571	-0.212031
C	 0.1611871597	 1.0488240862	-0.1793035406	 0.085811
C	 1.4282617335	 1.8889940783	-0.4011154134	 0.039405
O	 2.4496047667	 1.3290346738	-0.742575279	-0.244966
C	 1.311326901	 3.3037259939	-0.1841030927	 0.535052
C	 1.2231810899	 4.5003308829	-0.0030526568	-0.315536
C	 1.1201851095	 5.8366603779	 0.2004115154	 0.312865
C	 1.0307040472	 7.0274611991	 0.3810813553	-0.530235
H	 0.345601395	-0.0290375902	-0.3690047732	 0.1165
H	 0.9482495924	 8.0748904049	 0.5409795279	 0.213134
67.1116	103.8448	124.1132	194.2993	290.7442	296.516	464.2053	521.1401	555.0796	587.1606	600.304	644.3169	659.2818	707.3429	1019.2244	1029.0823	1260.0433	1363.4211	1742.7599	1833.0996	2174.291	2331.3527	2935.5697	3496.9533
O=CC(=O)C#CC#C	O=CC(=O)C#CC#C	
InChI=1S/C6H2O2/c1-2-3-4-6(8)5-7/h1,5H	InChI=1S/C6H2O2/c1-2-3-4-6(8)5-7/h1,5H
