11
gdb 132210	2.07497	1.98668	1.01503	7.0609	55.58	-0.2679	-0.0333	0.2345	1021.668	0.065742	-530.031972	-530.024601	-530.023657	-530.06437	26.239	
N	 0.1004339182	 1.3015906599	 0.0691366968	-0.564771
C	-0.0404178317	-0.0334366736	 0.0222788853	 0.517462
N	-1.1597021483	-0.6451319716	 0.0094483323	-0.371531
C	-1.1673527621	-2.0494056041	-0.0073409925	 0.398934
O	-2.1832843854	-2.6862008106	-0.0117977039	-0.317579
N	 0.1045356368	-2.7180918928	-0.0229568913	-0.394795
C	 1.1269565501	-1.9956511872	-0.0141581904	 0.408136
F	 2.3416509369	-2.4738417347	-0.0284400346	-0.031388
O	 1.202346711	-0.6460667278	 0.0101621506	-0.224408
H	 1.0052800694	 1.7213604773	-0.0523684419	 0.285344
H	-0.7305923248	 1.8618467352	-0.0095928506	 0.294597
88.8515	164.3964	187.2804	205.922	338.2801	397.2414	512.1437	540.2477	548.1094	630.0706	667.6505	716.801	745.2507	811.9409	904.5331	962.46	989.6726	1153.2169	1229.8376	1302.7195	1417.4039	1600.4517	1702.7572	1792.1535	1865.1497	3624.4919	3758.157
NC1=NC(=O)N=C(F)O1	Nc1nc(=O)nc(F)o1	
InChI=1S/C3H2FN3O2/c4-1-6-3(8)7-2(5)9-1/h(H2,5,7,8)	InChI=1S/C3H2FN3O2/c4-1-6-3(8)7-2(5)9-1/h(H2,5,7,8)
