11
gdb 129129	2.63537	1.90926	1.30139	4.5087	62.75	-0.2958	-0.1306	0.1652	896.4988	0.063998	-484.800977	-484.793699	-484.792755	-484.833095	26.038	
N	-0.0759805399	 1.2344680805	-0.2514737659	-0.435087
C	-0.0364046266	-0.0046550475	 0.003076346	 0.202163
N	 1.122958635	-0.7694967817	 0.2009573013	-0.197945
C	 1.3222653746	-1.8362096375	-0.4509894844	 0.081772
N	 0.5551647892	-2.2795135693	-1.5634961416	-0.026557
N	-0.6549806714	-2.3083985903	-1.6285256815	 0.04263
O	-1.4175318565	-1.9929050561	-0.3683753036	-0.265224
C	-1.3391208648	-0.7561024783	 0.2355917314	 0.43611
O	-2.2279619277	-0.3743332406	 0.924567416	-0.258175
H	 0.8718569191	 1.6092560727	-0.3494940073	 0.245582
H	 2.2114294989	-2.439370232	-0.2882388004	 0.174731
73.2324	139.5701	262.401	295.177	310.714	355.446	411.0937	532.8368	594.6074	660.3214	713.212	766.0039	813.1808	869.6293	940.286	952.3952	976.9264	1019.141	1111.0735	1306.5571	1389.6559	1650.2662	1717.6855	1720.1561	1879.1453	3182.9436	3448.4126
N=C1N=CN=NOC1=O	[NH][C]1N=CN=NOC1=O	
InChI=1S/C3H2N4O2/c4-2-3(8)9-7-6-1-5-2/h1,4H	InChI=1S/C3H2N4O2/c4-2-3(8)9-7-6-1-5-2/h1,4H
