11
gdb 132340	2.12136	1.96301	1.01956	2.9214	56.98	-0.2654	-0.0584	0.2071	1016.7738	0.066704	-530.021451	-530.014747	-530.013802	-530.053101	24.683	
O	-0.0861676523	 1.2600278885	 0.0099082113	-0.355505
C	 0.0384718744	-0.0499353421	 0.0024333498	 0.539847
N	 1.2063001378	-0.6186549552	-0.0069719583	-0.454781
C	 1.1153862456	-1.9756449982	-0.0133071419	 0.346261
F	 2.2825997181	-2.5705537722	-0.0231414637	-0.033126
N	 0.0687153079	-2.7177002468	-0.0113455701	-0.371365
C	-1.1517280263	-2.0831675506	-0.0013774028	 0.446532
N	-2.3101796956	-2.5683204804	 0.0028005344	-0.512194
O	-1.1286685314	-0.6480959646	 0.0059023965	-0.187101
H	 0.8097616913	 1.6296420926	 0.0068192461	 0.332961
H	-2.2426779495	-3.5842910309	-0.0026295712	 0.24847
106.6656	190.5026	203.5394	365.1018	386.9324	542.2072	561.7758	592.4413	611.6543	668.0401	718.8684	751.617	802.7234	865.1008	873.7877	980.5244	1091.8021	1144.372	1220.3021	1258.591	1441.9614	1507.7509	1609.1951	1703.0019	1785.877	3531.5257	3763.911
OC1=NC(F)=NC(=N)O1	O[C@H]1N=C(F)N=C([NH])O1	
InChI=1S/C3H2FN3O2/c4-1-6-2(5)9-3(8)7-1/h(H2,5,6,7,8)	InChI=1S/C3H3FN3O2/c4-1-6-2(5)9-3(8)7-1/h3,5,8H/t3-/m1/s1
