11
gdb 8619	2.23676	2.14892	1.45068	3.4629	58.18	-0.2973	-0.0792	0.2181	863.0674	0.068331	-397.36156	-397.353479	-397.352535	-397.39415	28.195	
O	-0.0088661339	 1.4765859835	 0.0653602346	-0.417492
C	-0.0088803628	 0.0818011335	 0.0809162849	-0.022669
C	 0.7238777591	-0.4492615683	-1.196602986	 0.139576
O	 1.1902827411	 0.3305343145	-1.9774387445	-0.23588
C	 0.7064464847	-0.4777309113	 1.2333261798	 0.326112
C	 1.3371585434	-0.9616851202	 2.1329422932	-0.432722
C	-1.3923683859	-0.4524665749	 0.0271317822	 0.27568
N	-2.4577095044	-0.8903974434	-0.0597199633	-0.316264
H	 0.444300843	 1.7266000143	-0.7596627354	 0.309376
H	 0.7849729946	-1.5451907476	-1.2994139374	 0.149759
H	 1.8798856609	-1.3754067001	 2.9481159019	 0.224525
86.2526	122.1499	164.9137	193.9193	280.6357	324.7318	414.4667	460.3877	506.0966	526.2386	576.0747	598.3213	666.9858	697.1582	818.7143	946.8852	969.173	1114.2281	1156.3348	1367.888	1418.9341	1835.101	2239.0922	2356.5638	3012.2525	3495.4016	3644.8497
OC(C=O)(C#C)C#N	O[C@@](C=O)(C#C)C#N	
InChI=1S/C5H3NO2/c1-2-5(8,3-6)4-7/h1,4,8H	InChI=1S/C5H3NO2/c1-2-5(8,3-6)4-7/h1,4,8H/t5-/m0/s1
