8
gdb 23866	2.83161	1.84543	1.84532	0.	27.49	-0.3848	0.0954	0.4802	705.3348	0.029437	-675.265273	-675.258505	-675.257561	-675.297105	23.119	
F	 0.00785413	 0.06297831	-0.0096674806	-0.051133
C	-0.0128051186	 1.3918723172	 0.0023031502	 0.153731
F	 1.2350571456	 1.8492934138	-0.0119625204	-0.051293
F	-0.6521409578	 1.8295611966	-1.0776429563	-0.051304
C	-0.7370943221	 1.8911274159	 1.2758974122	 0.153731
F	-0.0977596185	 1.4534395789	 2.3558440686	-0.051304
F	-0.7577538319	 3.2200215765	 1.2878670499	-0.051133
F	-1.9849567167	 1.4337058312	 1.2901621464	-0.051294
59.9644	208.0179	208.7709	344.408	374.2232	374.9991	519.8128	521.1209	615.4183	616.1203	712.1358	811.0586	1127.7763	1244.5135	1244.8232	1262.9639	1263.2112	1412.1072
FC(F)(F)C(F)(F)F	FC(F)(F)C(F)(F)F	
InChI=1S/C2F6/c3-1(4,5)2(6,7)8	InChI=1S/C2F6/c3-1(4,5)2(6,7)8
