10
gdb 133397	1.96129	1.0268	0.7409	3.0895	53.56	-0.2623	-0.0656	0.1967	1376.9775	0.04588	-554.02353	-554.012958	-554.012014	-554.064374	30.986	
F	-0.2380970812	-0.1099610485	 0.0268703649	-0.057299
C	-0.2758719062	 1.1879177098	-0.3019615018	 0.317847
C	-1.5642862432	 1.774652992	 0.0463798696	-0.06143
F	-2.4863273139	 1.0219509083	 0.6621453691	-0.061229
C	-1.8054400402	 3.054467571	-0.2192979389	 0.362437
N	-2.0609849303	 4.1796008191	-0.58551664	-0.479723
N	 1.0739471714	 4.7450144825	 0.5999636124	-0.015105
N	 2.1489566224	 4.525004804	 0.5503141446	 0.015716
O	 0.6489811112	 1.7442970796	-0.8078246449	-0.319321
H	-1.81917199	 4.9598068721	 0.0275404948	 0.298107
12.9858	33.4156	42.2473	49.4558	78.1799	91.3747	145.4587	263.56	288.2616	478.8697	486.586	494.1003	667.6934	727.031	782.8581	786.5434	958.585	1097.7381	1342.6982	1395.7294	1860.8101	2144.1741	2434.5687	3476.0471	12.9854	33.4155	42.2462	49.454	78.1793	91.3746	145.4587	263.56	288.2616	478.8696	486.586	494.1003	667.6932	727.0311	782.8581	786.5435	958.5849	1097.7381	1342.6981	1395.7293	1860.8099	2144.1735	2434.5687	3476.0468
FC1=C(F)C(=N)N=NO1	FC(=O)[C](F)[C][NH].N#N	
InChI=1S/C3HF2N3O/c4-1-2(5)9-8-7-3(1)6/h6H	InChI=1S/C3HF2NO.N2/c4-2(1-6)3(5)7;1-2/h6H;
