11
gdb 20479	6.75776	1.44946	1.29614	2.6859	52.64	-0.2974	-0.0822	0.2152	867.783	0.071686	-430.628643	-430.622425	-430.621481	-430.660217	21.488	
C	 0.2356233532	 1.5525373785	 0.0975487299	-0.16787
O	 1.1311285301	 0.5022800004	-0.2475942121	-0.211568
C	-0.2103982046	 0.1473935067	 0.0783071891	-0.016853
C	-0.4124634108	-0.6155267102	 1.3256342602	 0.425057
N	 0.2441847527	-0.4610521024	 2.4409905062	-0.147151
O	-0.2919855069	-1.3733468407	 3.2792178981	-0.131261
N	-1.2952391136	-2.0705395418	 2.6098851187	 0.049918
N	-1.363171009	-1.6150683624	 1.4408912329	-0.209173
H	 0.4222404863	 2.0291364306	 1.0575641312	 0.144171
H	-0.0609491941	 2.2092238314	-0.718359447	 0.134111
H	-0.8185966034	-0.21166047	-0.7487335173	 0.13062
35.8319	184.8345	187.4339	414.0055	445.2788	673.2856	688.1612	697.8174	780.148	870.5546	904.158	968.4082	1005.4628	1063.7355	1094.7082	1125.4295	1161.4766	1171.1175	1246.3664	1280.1175	1420.2662	1495.4884	1524.9469	1592.2281	3094.329	3148.7866	3192.196
C1OC1C1=NON=N1	C1O[C@H]1c1nonn1	
InChI=1S/C3H3N3O2/c1-2(7-1)3-4-6-8-5-3/h2H,1H2	InChI=1S/C3H3N3O2/c1-2(7-1)3-4-6-8-5-3/h2H,1H2/t2-/m1/s1
