11
gdb 24887	3.7517	1.33898	0.9868	3.087	67.77	-0.2865	-0.1247	0.1618	1067.2051	0.067215	-447.750504	-447.743528	-447.742584	-447.782646	24.678	
N	-0.1923193831	 1.2795616208	 0.0087238326	-0.498859
C	 0.0054579862	 0.0400062649	 0.0010813501	 0.441254
O	-1.1757996673	-0.7517448062	 0.0033414612	-0.204399
C	-1.0414487842	-2.0744985777	-0.0042279492	 0.347498
N	 0.0576935932	-2.7378021402	-0.0136978822	-0.311442
C	 1.1888890831	-1.9289158675	-0.0155639172	 0.06809
N	 1.2146829824	-0.6427831867	-0.0089852204	-0.267322
C	-2.3089133473	-2.7640377426	-0.0011617452	 0.305129
N	-3.3202238792	-3.3216762378	 0.0012514352	-0.289771
H	 0.7067159861	 1.7589042658	 0.0064413543	 0.253175
H	 2.1342811402	-2.4651380427	-0.0235298491	 0.156647
80.4535	127.0972	157.2106	336.0747	437.0566	451.9287	492.1067	562.9751	583.8143	736.3389	775.5352	782.0328	866.3232	878.9953	952.2231	1008.4508	1012.6576	1184.2649	1231.3726	1328.6958	1416.6569	1581.2481	1673.9931	1769.6003	2371.172	3180.2668	3525.6112
N=C1OC(=NC=N1)C#N	[NH]C1=NCN=C(O1)C#N	
InChI=1S/C4H2N4O/c5-1-3-7-2-8-4(6)9-3/h2,6H	InChI=1S/C4H3N4O/c5-1-3-7-2-8-4(6)9-3/h6H,2H2
