11
gdb 48190	1.66659	1.53359	1.37859	4.5851	66.85	-0.3059	-0.0856	0.2203	1042.6633	0.061897	-414.370329	-414.361293	-414.360349	-414.404649	30.468	
O	-0.1050496734	 0.0241020787	-0.0648329635	-0.186438
C	-0.0188851788	 1.2059447974	 0.0084634396	 0.173056
C	 1.3742203781	 1.9794046059	 0.0159918137	-0.338312
C	 1.3773559844	 2.8166176438	-1.185320311	 0.3123
C	 1.3025067035	 3.4739312455	-2.1857156821	-0.387505
C	 1.3928453921	 2.8057177921	 1.2376978156	 0.305202
N	 1.3383383637	 3.4411359976	 2.199964291	-0.300196
C	 2.4898043467	 1.0201693933	 0.0190517775	 0.34001
N	 3.3608572332	 0.2644574196	 0.014147324	-0.302061
H	-0.871513316	 1.90759301	 0.0545688079	 0.149231
H	 1.2641620765	 4.0650116362	-3.0690849029	 0.234714
67.255	116.1515	129.9687	142.9632	162.4454	215.1312	347.7243	385.6864	445.3043	493.6872	553.4262	572.9646	579.3283	677.1726	698.1271	717.4675	930.8269	957.5476	1113.8618	1136.0849	1387.4737	1870.3967	2247.6459	2366.1713	2381.3641	2980.6888	3492.6479
O=CC(C#C)(C#N)C#N	O=CC(C#C)(C#N)C#N	
InChI=1S/C6H2N2O/c1-2-6(3-7,4-8)5-9/h1,5H	InChI=1S/C6H2N2O/c1-2-6(3-7,4-8)5-9/h1,5H
