11
gdb 21351	5.70317	2.27446	1.626	3.5268	58.06	-0.2387	-0.0384	0.2003	691.2241	0.076723	-389.736939	-389.731729	-389.730785	-389.766056	20.322	
N	 0.0321573927	 1.3310590322	 0.0092836877	-0.1718
C	 1.2837542523	 1.8560003353	-0.0000348199	-0.151774
C	 2.1203732946	 0.7471717537	-0.0141726242	 0.238374
N	 3.4185676093	 0.2881136172	-0.0292690491	-0.293444
N	 3.3747692929	-1.0002313991	-0.035838973	-0.094949
N	 2.0645416886	-1.4304350813	-0.0254317124	-0.346082
C	 1.2400713165	-0.3523450297	-0.0115772922	 0.455677
N	-0.0497501238	-0.0326062855	 0.0026914772	-0.359841
H	-0.8312855067	 1.8493409873	 0.020486465	 0.285202
H	 1.4525393001	 2.9197673236	 0.0040878348	 0.154823
H	 1.8761909034	-2.4178219238	-0.0289502441	 0.283815
267.7221	340.093	427.1732	496.6454	546.9469	644.7456	692.6146	720.1837	759.2686	774.6162	800.051	966.3033	973.0931	1016.3591	1041.9373	1181.4207	1243.1279	1284.2438	1335.7904	1407.5225	1456.6978	1480.5803	1523.0538	1664.1709	3280.6168	3664.0678	3688.3762
N1C=C2N=NNC2=N1	[nH]1cc2nn[nH]c2n1	
InChI=1S/C3H3N5/c1-2-3(6-4-1)7-8-5-2/h1H,(H2,4,5,6,7,8)	InChI=1S/C3H3N5/c1-2-3(6-4-1)7-8-5-2/h1H,(H2,4,5,6,7,8)
