11
gdb 128880	6.75832	0.90846	0.80082	2.4872	72.76	-0.2945	-0.0742	0.2203	1270.0662	0.068656	-410.632873	-410.625824	-410.62488	-410.664791	25.123	
N	 0.149820787	-1.1563467738	-0.0061722956	-0.316648
C	 0.0331226549	-0.0048546572	 0.0021167465	 0.232915
C	-0.0858291826	 1.4047130808	 0.0119446858	 0.31334
C	-1.1938178418	 2.2315120175	 0.031542399	-0.385318
C	-0.6537816013	 3.5356236466	 0.0319588799	 0.254639
N	 0.688124549	 3.5187795662	 0.0140033653	-0.243117
N	 1.0035998875	 2.2313446799	 0.0022957153	-0.257063
C	-1.3723895037	 4.7639516906	 0.0486956788	 0.251962
N	-1.9912918932	 5.7405700111	 0.0626365995	-0.321545
H	-2.2293075723	 1.9376305004	 0.0436126302	 0.1637
H	 1.9748162765	 1.958741758	-0.0122014448	 0.307137
110.3858	121.3762	209.704	223.0559	476.7835	481.8098	530.8827	535.6858	597.6092	607.2758	673.3924	699.2449	726.6502	865.7353	1004.9686	1042.0324	1159.0236	1236.8639	1288.9886	1398.8827	1434.4147	1465.882	1583.7595	2355.3492	2365.5945	3294.1727	3646.9894
N#CC1=CC(=NN1)C#N	N#Cc1cc(n[nH]1)C#N	
InChI=1S/C5H2N4/c6-2-4-1-5(3-7)9-8-4/h1H,(H,8,9)	InChI=1S/C5H2N4/c6-2-4-1-5(3-7)9-8-4/h1H,(H,8,9)
