11
gdb 130820	4.64648	1.0703	0.86992	0.9108	60.77	-0.2786	-0.1367	0.1419	1178.0193	0.063697	-488.657603	-488.65004	-488.649096	-488.691024	25.439	
O	-0.0867438255	 0.017773796	 0.0019408621	-0.196874
C	-0.0345937604	 1.2147827372	 0.008119458	 0.083862
C	 1.3312207041	 1.9450488135	-0.00205115	 0.202836
O	 2.371829423	 1.3349694822	-0.0160867513	-0.253936
C	 1.3153504853	 3.4255576437	 0.0060579916	 0.317394
C	 2.335687032	 4.3308329675	 0.0004404352	-0.158284
N	 1.7604092715	 5.5750852259	 0.0130243269	-0.102034
N	 0.5047236956	 5.4868008034	 0.0254126844	 0.015897
O	 0.1599962823	 4.1000109195	 0.0215067752	-0.215269
H	-0.9348450985	 1.8594899771	 0.0210873258	 0.127532
H	 3.4007590503	 4.178926674	-0.0112896479	 0.178876
55.3552	78.287	144.7101	195.3093	288.5835	388.6616	467.2288	536.9062	640.4305	692.6252	706.436	833.437	879.0541	939.7512	983.4143	1010.7137	1075.2587	1125.1677	1252.104	1353.5975	1405.44	1438.7203	1584.5065	1786.5722	1839.4881	2952.6788	3305.271
O=CC(=O)C1=CN=NO1	O=CC(=O)c1cnno1	
InChI=1S/C4H2N2O3/c7-2-3(8)4-1-5-6-9-4/h1-2H	InChI=1S/C4H2N2O3/c7-2-3(8)4-1-5-6-9-4/h1-2H
