11
gdb 5202	8.28013	1.22834	1.07759	3.7903	54.09	-0.2526	-0.0202	0.2323	978.7762	0.072552	-434.577111	-434.570621	-434.569677	-434.608798	22.196	
O	-0.0166101683	-0.0121581592	 0.1143400204	-0.253334
C	-0.0226253666	 1.1681700832	-0.0325479268	 0.156681
O	 1.0889017856	 1.9173814949	 0.2646424868	-0.226518
C	 1.0249347719	 3.2676933375	 0.129471218	 0.352227
C	 2.0744918188	 4.1028855334	-0.0642576401	-0.135757
O	 1.5631419861	 5.3745986499	-0.090902568	-0.131545
C	 0.2390449966	 5.2180474181	 0.080789296	 0.09682
N	-0.1473273764	 3.9892434208	 0.2233535417	-0.327679
H	-0.8584813659	 1.7790710052	-0.3991662454	 0.134276
H	 3.1354646356	 3.9856893931	-0.1833938782	 0.16751
H	-0.3656070877	 6.110705233	 0.0902104957	 0.167319
54.257	121.031	183.1647	357.7922	451.9997	506.6329	640.8984	696.5809	754.3658	830.9406	844.4607	936.1842	1006.8611	1040.0697	1089.2377	1107.6628	1159.982	1250.6781	1317.5332	1350.4043	1412.8158	1550.1242	1642.8017	1877.4334	3063.4799	3282.7324	3316.4327
O=COC1=COC=N1	O=COc1cocn1	
InChI=1S/C4H3NO3/c6-3-8-4-1-7-2-5-4/h1-3H	InChI=1S/C4H3NO3/c6-3-8-4-1-7-2-5-4/h1-3H
