11
gdb 123319	2.01076	1.97167	0.99551	3.8279	71.82	-0.2718	-0.056	0.2158	1060.8545	0.067439	-410.569192	-410.56202	-410.561075	-410.601185	25.945	
C	-0.0063704282	-1.1904731352	-0.0039081699	-0.396556
C	-0.0323889918	 0.0112130085	 0.0034953107	 0.26908
C	-0.0206361094	 1.4218855977	 0.0113394415	 0.143272
N	-1.1306175163	 2.1731378649	 0.0295674322	-0.259137
N	-0.6596788638	 3.4099693917	 0.0306234048	-0.085584
N	 0.6491537944	 3.564744442	 0.0150048938	-0.235341
C	 1.0953430037	 2.303018381	 0.0022097661	 0.135577
C	 2.476361304	 1.9810698084	-0.0170765426	 0.237067
N	 3.5940781858	 1.6845793119	-0.0328834141	-0.331955
H	 0.0162493741	-2.2527842782	-0.0107323084	 0.211353
H	-1.2798000925	 4.2059372873	 0.0429399058	 0.312224
104.3179	162.619	198.7048	208.4435	455.163	466.8831	536.4367	547.8345	593.4571	635.0579	638.751	666.9565	690.8968	717.9171	803.3002	1000.3697	1157.9585	1213.495	1269.5834	1319.6427	1436.4544	1487.4245	1525.4695	2251.0667	2364.1215	3499.1584	3650.7381
C#CC1=NNN=C1C#N	C#Cc1n[nH]nc1C#N	
InChI=1S/C5H2N4/c1-2-4-5(3-6)8-9-7-4/h1H,(H,7,8,9)	InChI=1S/C5H2N4/c1-2-4-5(3-6)8-9-7-4/h1H,(H,7,8,9)
