10
gdb 132405	1.98028	1.81801	0.94784	2.2286	51.35	-0.2973	-0.0489	0.2484	1034.0071	0.05349	-562.027366	-562.021105	-562.020161	-562.058518	23.143	
F	 0.0287116872	 0.0667916858	 0.0029005014	-0.041597
C	-0.0174966285	 1.3821715789	 0.0106688827	 0.380576
C	-1.2517421213	 2.0167201091	 0.0313061191	-0.436698
C	-1.1620023877	 3.4017631866	 0.037566035	 0.380576
F	-2.2666428911	 4.1171767041	 0.0568535236	-0.041597
N	-0.0292749662	 4.0787172075	 0.0253979801	-0.361772
C	 1.0546245923	 3.3240757262	 0.0061162281	 0.370115
F	 2.1959570481	 3.9710325715	-0.0061334795	-0.037525
N	 1.1451448471	 2.0063374972	-0.0022057092	-0.361773
H	-2.1908282498	 1.4843988832	 0.0415241487	 0.149695
198.0286	223.356	251.5097	357.7518	369.5758	524.1868	567.4833	630.5598	645.2787	712.409	720.0578	804.1898	854.0889	1003.0089	1037.4414	1110.8917	1188.4077	1319.8764	1449.6695	1488.4877	1496.124	1629.3971	1645.6283	3251.9446
FC1=CC(F)=NC(F)=N1	Fc1cc(F)nc(F)n1	
InChI=1S/C4HF3N2/c5-2-1-3(6)9-4(7)8-2/h1H	InChI=1S/C4HF3N2/c5-2-1-3(6)9-4(7)8-2/h1H
