11
gdb 50804	4.61578	0.89882	0.75473	1.8298	60.3	-0.3036	-0.1412	0.1624	1340.5113	0.063044	-488.706636	-488.697953	-488.697009	-488.741602	28.257	
N	-0.0126782985	 1.4141335115	-0.1618143651	-0.498833
C	-0.0052783342	 0.1523184026	-0.1088882302	 0.358272
O	-1.1195754262	-0.611991077	-0.1745689117	-0.203594
C	-2.3581886909	-0.0247056608	 0.0657104957	 0.184771
O	-3.3533026866	-0.63806152	-0.1266298102	-0.22482
C	 1.2278567361	-0.7284968971	 0.0153842586	 0.249401
O	 1.2028086154	-1.9234116988	 0.1010817377	-0.227133
C	 2.4970619261	 0.0263388444	 0.0269016243	 0.232349
N	 3.4966849404	 0.6074488687	 0.0406321806	-0.292324
H	 0.9258115008	 1.808040568	-0.0928676189	 0.270021
H	-2.2664770223	 0.9993672487	 0.4468531492	 0.151891
43.7353	73.5846	103.163	139.3653	201.9681	262.3023	316.8846	425.6933	463.4008	487.7252	585.9781	683.7925	804.1499	821.3076	896.6055	1020.7138	1040.7471	1076.1671	1123.7347	1359.1798	1402.7606	1715.8047	1808.3693	1892.0336	2339.7877	3086.0803	3498.2586
N=C(OC=O)C(=O)C#N	[NH][C](OC=O)C(=O)C#N	
InChI=1S/C4H2N2O3/c5-1-3(8)4(6)9-2-7/h2,6H	InChI=1S/C4H2N2O3/c5-1-3(8)4(6)9-2-7/h2,6H
