11
gdb 21940	7.13726	1.31994	1.12173	5.2601	48.93	-0.2863	-0.0172	0.2691	953.2026	0.07094	-471.676354	-471.6693	-471.668356	-471.708539	23.872	
O	 0.0565714181	 1.3825321884	 0.0101396627	-0.389066
C	-0.0233245813	-0.0166532045	 0.001873821	-0.180694
C	-1.4619116816	-0.4143245997	 0.0128957195	 0.444034
N	-2.4881837723	 0.3502913648	 0.0221482615	-0.158051
O	-3.586713799	-0.5555235874	 0.029551035	-0.22659
C	-3.123143028	-1.8280892219	 0.0240195254	 0.515648
O	-3.7517914298	-2.831528506	 0.0274281078	-0.354539
O	-1.7371946543	-1.7400393429	 0.0132198437	-0.230385
H	 0.9852237803	 1.6314617348	-0.0071189713	 0.306652
H	 0.438023003	-0.4719579446	-0.8901422361	 0.136527
H	 0.4547176048	-0.4833530009	 0.8791360208	 0.136463
49.1763	155.0207	186.4006	201.9281	311.603	386.7718	558.3758	634.1636	691.1894	771.304	772.6744	881.1236	961.8888	986.1779	1042.0958	1125.5614	1147.6387	1236.7214	1247.0183	1333.7104	1493.7322	1504.8302	1699.4417	1954.1489	2970.2044	2992.9127	3843.2505
OCC1=NOC(=O)O1	OCc1noc(=O)o1	
InChI=1S/C3H3NO4/c5-1-2-4-8-3(6)7-2/h5H,1H2	InChI=1S/C3H3NO4/c5-1-2-4-8-3(6)7-2/h5H,1H2
