9
gdb 23826	4.18438	2.03316	1.36831	1.1866	49.62	-0.2958	-0.1308	0.1649	765.7073	0.047305	-470.744654	-470.738604	-470.73766	-470.775727	21.294	
F	 0.056043592	 0.0938911838	 0.002531572	-0.019896
C	-0.0842568538	 1.3893540262	 0.0114926755	 0.403979
N	-1.2325641126	 1.9125244914	 0.0298948457	-0.296579
C	-1.2750608584	 3.3008380219	 0.0380169694	 0.470364
N	-2.3503511182	 3.9484385352	 0.0564785192	-0.490968
O	-0.0324619803	 3.9699571747	 0.0255408122	-0.255132
N	 1.1814277332	 3.2739249702	 0.0051475883	 0.10204
N	 1.1672665997	 2.0356939414	-0.0017816361	-0.162736
H	-2.1786816317	 4.9533520651	 0.0599837937	 0.248928
50.8201	189.9951	370.5887	413.0603	502.9392	542.5078	574.1088	708.8106	740.782	770.2625	787.6166	869.3516	905.7971	1002.4128	1089.9779	1264.2237	1353.0232	1588.5307	1744.7339	1779.9623	3515.1098
FC1=NC(=N)ON=N1	FC1=N[N]OC(=N1)[NH]	
InChI=1S/C2HFN4O/c3-1-5-2(4)8-7-6-1/h4H	InChI=1S/C2HFN4O/c3-1-5-2(4)8-7-6-1/h4H
