10
gdb 21761	5.77051	2.4246	1.70726	2.2108	52.59	-0.2819	-0.0474	0.2344	656.9102	0.064022	-409.615051	-409.610184	-409.60924	-409.644042	18.279	
O	-0.0234462184	 1.3002506472	 0.0092988738	-0.23862
N	 1.3299817897	 1.7571899857	-0.0009863546	-0.113916
C	 2.0760868861	 0.6922920595	-0.014069076	 0.061057
N	 1.3104418403	-0.438255867	-0.013135111	 0.006221
N	 1.370245352	-1.8028593193	-0.0213778844	-0.270275
C	 0.0696270277	-2.0884087053	-0.010603437	 0.049704
N	-0.8191268847	-1.0375594299	 0.0037150988	-0.387517
C	 0.0183452692	-0.0326648703	 0.0014195349	 0.546395
H	 3.1534963973	 0.7252374788	-0.0241238342	 0.198643
H	-0.264591389	-3.1155809495	-0.0132221205	 0.148308
218.6771	347.236	491.5938	601.2013	654.087	724.302	769.2048	790.9511	855.3297	871.9451	923.0681	957.0508	998.6581	1178.0243	1205.6249	1219.1478	1267.8687	1388.5064	1435.6251	1448.3573	1570.914	1632.0613	3263.2998	3289.596
O1N=CN2N=CN=C12	o1ncn2ncnc12	
InChI=1S/C3H2N4O/c1-4-3-7(5-1)2-6-8-3/h1-2H	InChI=1S/C3H2N4O/c1-4-3-7(5-1)2-6-8-3/h1-2H
