11
gdb 21540	3.72253	1.96892	1.28902	1.1074	61.59	-0.2384	-0.0511	0.1873	840.1996	0.074698	-389.772759	-389.766121	-389.765177	-389.803591	24.201	
N	 0.0570391589	 1.3879399045	 0.1604244868	-0.598497
C	-0.023518981	 0.0261390268	 0.0521837865	 0.255066
C	-1.1413809249	-0.8033703781	 0.0228508501	 0.219922
N	-0.5914085215	-2.0622323677	-0.0238853877	-0.2625
N	 0.7316974162	-2.0144856721	-0.025365295	-0.08525
N	 1.0897394134	-0.756843971	 0.0186092129	-0.237914
C	-2.5168358587	-0.5266098625	 0.0300193215	 0.210108
N	-3.6496039192	-0.2754054285	 0.0314164072	-0.34284
H	 0.9550104314	 1.7682511938	-0.0996566799	 0.272516
H	-0.72893481	 1.9173099859	-0.1838948022	 0.271564
H	-1.0667596646	-2.951002731	-0.0581703603	 0.297826
135.3807	163.7969	312.7174	323.3797	374.5132	512.9807	527.693	542.912	558.175	605.1232	703.9676	754.949	769.3957	1002.9554	1077.6981	1150.5052	1228.8993	1255.0802	1342.8999	1392.4171	1529.7421	1610.5232	1662.649	2330.8658	3580.6024	3650.0929	3688.5803
NC1=C(NN=N1)C#N	Nc1c([nH]nn1)C#N	
InChI=1S/C3H3N5/c4-1-2-3(5)7-8-6-2/h(H3,5,6,7,8)	InChI=1S/C3H3N5/c4-1-2-3(5)7-8-6-2/h(H3,5,6,7,8)
