11
gdb 130885	4.02882	1.24596	0.95165	1.791	61.17	-0.2725	-0.1345	0.1379	1092.6741	0.065906	-484.857662	-484.850551	-484.849607	-484.890098	24.713	
O	-0.9752752211	 1.3964202279	 0.0622277177	-0.208327
C	 0.1165083951	 1.0400706452	-0.2818770274	 0.134053
C	 1.3701523	 1.8699648708	-0.0989985836	 0.287476
N	 2.4700618529	 1.3351828259	-0.5286245065	-0.311192
C	 3.6397494933	 2.0745714738	-0.3746313448	 0.474232
O	 4.7435335408	 1.7404341456	-0.7106466465	-0.337483
N	 3.4127145472	 3.3261191512	 0.2461389068	-0.239002
N	 2.2516523143	 3.8167210114	 0.6660482798	-0.006615
N	 1.2026863522	 3.1075646187	 0.5067466391	-0.21844
H	 0.3272230126	 0.0684921525	-0.7696360216	 0.123094
H	 4.2085699528	 3.9344458269	 0.4000135369	 0.302204
74.716	109.8763	202.1234	220.1445	405.3068	405.5604	502.3895	583.6681	642.8713	690.0565	772.	788.5768	817.535	940.666	1006.3331	1039.7916	1078.2172	1189.7137	1318.1492	1371.3323	1395.1721	1527.9012	1614.9437	1837.3901	1854.5769	2959.3553	3581.0041
O=CC1=NC(=O)NN=N1	O=Cc1nc(=O)[nH]nn1	
InChI=1S/C3H2N4O2/c8-1-2-4-3(9)6-7-5-2/h1H,(H,4,5,6,9)	InChI=1S/C3H2N4O2/c8-1-2-4-3(9)6-7-5-2/h1H,(H,4,5,6,9)
