11
gdb 130882	3.22377	1.36864	0.96075	3.462	61.12	-0.2753	-0.1195	0.1558	1085.937	0.0645	-488.667674	-488.660408	-488.659464	-488.7004	25.107	
O	-0.1298855302	 0.0046750547	-0.0028843892	-0.193815
C	-0.0242930094	 1.1964520392	 0.0067279191	 0.119202
C	 1.3262106406	 1.8963570363	-0.0020847981	 0.343209
N	 2.4318248607	 1.257480225	-0.018936578	-0.317666
C	 3.6063690345	 2.0275511837	-0.025332669	 0.376414
O	 4.7138117726	 1.5497863491	-0.0416441775	-0.306072
C	 3.3848783189	 3.4953741995	-0.0114953269	-0.03672
N	 2.2477400963	 4.0859475226	 0.0052394144	-0.040204
O	 1.1357526463	 3.2315577137	 0.0103421236	-0.244964
H	-0.8851588673	 1.8925719095	 0.0213215354	 0.125594
H	 4.247394927	 4.1559428866	-0.015587574	 0.175023
67.8533	111.657	182.3607	188.7398	406.3406	430.0536	468.9971	548.2997	599.0003	677.3114	744.9526	789.0095	880.9885	949.0093	962.6261	1012.0258	1024.2126	1157.9263	1277.8859	1302.1201	1413.9074	1636.8233	1674.1747	1811.4741	1847.2738	2956.8039	3190.5136
O=CC1=NC(=O)C=NO1	O=Cc1nc(=O)cno1	
InChI=1S/C4H2N2O3/c7-2-4-6-3(8)1-5-9-4/h1-2H	InChI=1S/C4H2N2O3/c7-2-4-6-3(8)1-5-9-4/h1-2H
