10
gdb 133417	6.16259	1.05212	0.89869	4.4514	62.93	-0.2829	-0.1141	0.1688	1118.2957	0.054373	-471.758261	-471.751692	-471.750748	-471.789713	23.527	
F	 0.0084381156	 0.0656863713	 0.0034414686	-0.033418
C	-0.023446954	 1.379619937	 0.0105729191	 0.360283
C	-1.254095402	 2.04787458	 0.0304753705	-0.121447
N	-1.2663707959	 3.365497428	 0.0373632062	-0.239302
C	-0.0540185927	 3.946815814	 0.024082224	 0.283407
N	 1.1294447855	 3.3295605704	 0.0050837933	-0.206161
N	 1.1346304973	 2.0007778024	-0.0017676666	-0.21729
C	-0.0148499667	 5.3869872548	 0.0309213149	 0.311703
N	 0.0071714705	 6.5420158984	 0.036532149	-0.305269
H	-2.1970604475	 1.5088171237	 0.040354761	 0.167493
91.9286	163.5664	266.8608	407.5574	415.259	464.0663	500.9142	564.8772	602.8271	664.1812	731.4599	836.9478	883.4243	966.5122	1055.1402	1162.1509	1279.0408	1291.3838	1367.0747	1448.25	1556.9125	1595.9738	2368.6486	3182.0511
FC1=CN=C(N=N1)C#N	Fc1cnc(nn1)C#N	
InChI=1S/C4HFN4/c5-3-2-7-4(1-6)9-8-3/h2H	InChI=1S/C4HFN4/c5-3-2-7-4(1-6)9-8-3/h2H
