11
gdb 11690	5.83418	1.42748	1.30855	1.2766	57.42	-0.2758	-0.0629	0.2129	870.4537	0.070916	-397.374415	-397.367893	-397.366948	-397.40534	23.678	
O	 0.0525604469	 0.0074122824	 0.0049670577	-0.271121
C	 0.0099161184	 1.195436583	 0.0486546485	 0.43306
C	-1.1503922095	 2.238438792	 0.1038988724	-0.417648
C	-0.062221445	 3.3077109309	-0.0993521442	 0.307056
O	 0.831466762	 3.1886064644	 1.0032018489	-0.250782
C	 1.0522635532	 2.3100978456	-0.113362854	-0.163526
C	-0.158396708	 4.5487818001	-0.8010172942	 0.21405
N	-0.2759617784	 5.5449229043	-1.3756335441	-0.321863
H	-1.8258810534	 2.1055200253	-0.7453101573	 0.161525
H	-1.7152557775	 2.3266511587	 1.0327144265	 0.157609
H	 2.0228829412	 2.3349331634	-0.5942994702	 0.151641
96.5096	163.6686	243.8332	397.0424	442.8429	513.8949	554.223	574.3341	589.5839	679.9771	784.0207	850.6088	954.0806	981.8338	1006.556	1035.5508	1109.6905	1183.3264	1203.149	1217.0488	1384.2006	1444.1283	1919.951	2363.4617	3081.2338	3148.2478	3205.3132
O=C1CC2(OC12)C#N	O=C1C[C@]2(O[C@@H]12)C#N	
InChI=1S/C5H3NO2/c6-2-5-1-3(7)4(5)8-5/h4H,1H2	InChI=1S/C5H3NO2/c6-2-5-1-3(7)4(5)8-5/h4H,1H2/t4-,5-/m0/s1
