11
gdb 132237	2.15416	1.86418	0.99935	4.0168	57.15	-0.2818	-0.0593	0.2225	1032.8427	0.064717	-533.833835	-533.82682	-533.825876	-533.86617	25.339	
F	 0.1085438634	 0.0732792676	-0.0901916792	-0.015198
C	-0.0760412086	 1.3560453935	 0.0522424947	 0.429348
C	-1.244642194	 1.9755118334	-0.1360096341	-0.506537
C	-1.2959279776	 3.4076670656	 0.0601341918	 0.472433
O	-2.2342624708	 4.1325097306	-0.0587487144	-0.305314
O	-0.0658821787	 3.9951583295	 0.43791366	-0.230103
C	 1.0875419949	 3.3344265073	 0.616356122	 0.497597
N	 2.1357759353	 3.9262630562	 0.9514118504	-0.517173
O	 1.0622995455	 1.9481403657	 0.4092086819	-0.236338
H	-2.1361317306	 1.4427993058	-0.4258124591	 0.160944
H	 2.9139501813	 3.2781618747	 1.0424377559	 0.250341
69.2593	133.7488	185.9931	354.6894	387.6037	478.1245	519.9655	602.2575	644.9604	671.5674	700.5029	719.4836	816.9379	832.4981	862.25	949.962	1025.965	1077.3456	1150.3836	1251.2218	1306.0205	1419.9238	1731.7468	1802.4158	1895.2343	3268.7515	3548.5867
FC1=CC(=O)OC(=N)O1	FC1=CC(=O)O[C]([NH])O1	
InChI=1S/C4H2FNO3/c5-2-1-3(7)9-4(6)8-2/h1,6H	InChI=1S/C4H2FNO3/c5-2-1-3(7)9-4(6)8-2/h1,6H
