11
gdb 131412	3.25692	1.53633	1.04391	3.5353	57.72	-0.2767	-0.0914	0.1853	1012.5879	0.064614	-525.810678	-525.803361	-525.802417	-525.8437	26.306	
O	-0.0369040446	 1.2965852667	-0.2464294556	-0.367539
C	 0.0232566478	-0.0163429688	-0.0219237985	 0.299518
N	 1.1540899188	-0.6029692481	 0.0818556876	-0.167662
O	 1.1347629467	-1.9826390206	 0.3173774914	-0.273102
C	-0.0269708637	-2.7011243248	 0.4363170827	 0.517998
N	-0.0504677655	-3.9336610662	 0.6471538447	-0.514409
O	-1.2106209224	-2.0297088434	 0.3180499211	-0.218553
C	-1.3002414745	-0.6879676389	 0.088586236	 0.426042
O	-2.3572958366	-0.1504661278	-0.0066184531	-0.278283
H	 0.8701464092	 1.6338701586	-0.3011841363	 0.323385
H	 0.8921496748	-4.3109348667	 0.7147602499	 0.252605
29.6329	109.1988	293.8106	320.1065	382.0313	388.2138	480.478	532.8084	541.7893	609.3272	687.6373	693.2802	790.5021	812.7302	824.3469	945.2412	973.0775	1068.0951	1209.6563	1229.0372	1311.0792	1474.2697	1689.2054	1781.3277	1892.3219	3541.5114	3751.4813
OC1=NOC(=N)OC1=O	OC1=NO[C]([NH])OC1=O	
InChI=1S/C3H2N2O4/c4-3-8-2(7)1(6)5-9-3/h4H,(H,5,6)	InChI=1S/C3H2N2O4/c4-3-8-2(7)1(6)5-9-3/h4H,(H,5,6)
