11
gdb 130520	4.06503	1.8628	1.27742	0.6289	65.71	-0.2925	-0.1349	0.1576	854.9961	0.068878	-447.707888	-447.702315	-447.701371	-447.737853	21.406	
O	-0.1084080828	 1.277343693	 0.0101119455	-0.21537
N	 1.0705910766	 2.0371762385	 0.0029163925	-0.072562
C	 2.1905621521	 1.3699558012	-0.0116547636	 0.092178
N	 2.4323857024	 0.017271307	-0.0215294059	-0.311522
C	 1.3362962662	-0.6761926914	-0.0147651635	 0.360454
N	 1.1246100146	-2.0211964809	-0.0202058074	-0.316976
C	-0.2001286696	-2.0888590942	-0.0077584153	 0.062427
N	-0.9528717249	-0.9123083	 0.0061161466	-0.337716
C	 0.0026896461	-0.0303293362	 0.0017495998	 0.417759
H	 3.0591915844	 2.021308231	-0.0164446887	 0.167222
H	-0.7179558152	-3.0410573281	-0.0080177694	 0.154105
222.5632	254.2554	354.3819	499.7816	548.3356	570.0572	629.4792	636.5202	753.5817	829.2835	879.9208	920.3928	951.6025	962.3058	996.7207	1077.516	1177.283	1250.6367	1292.6074	1341.7262	1404.2512	1425.776	1528.8958	1622.5713	1679.5897	3198.2377	3225.6932
O1N=CN=C2N=CN=C12	o1ncnc2ncnc12	
InChI=1S/C4H2N4O/c1-5-3-4(7-1)9-8-2-6-3/h1-2H	InChI=1S/C4H2N4O/c1-5-3-4(7-1)9-8-2-6-3/h1-2H
