10
gdb 132001	4.69888	1.19975	0.95573	2.0151	55.39	-0.2943	-0.1317	0.1626	1080.8338	0.052551	-541.75257	-541.745656	-541.744712	-541.784979	24.157	
N	-0.2285499617	 1.2405995677	 0.010833909	-0.550066
C	-0.0485376918	 0.0108673571	 0.002966544	 0.537816
O	 1.1225840063	-0.7220233492	-0.0066987721	-0.230783
N	 0.8091894647	-2.0928482448	-0.0130003303	-0.129761
C	-0.4662151983	-2.0964176409	-0.0069621827	 0.554073
O	-1.0832164422	-0.9120490675	 0.0026697577	-0.178705
N	-1.2837534326	-3.3107489389	-0.009957964	 0.357875
O	-0.6755372708	-4.3633511066	-0.0188357032	-0.311405
O	-2.4883689415	-3.1347035016	-0.0034780499	-0.313922
H	 0.6448076178	 1.7603324848	 0.0096784115	 0.264879
51.2292	138.6884	198.0116	282.695	399.2172	436.4497	566.8572	595.6537	713.0097	747.4404	782.4617	786.5125	835.8858	908.7274	919.9747	962.5818	1036.8944	1215.2185	1334.7796	1393.4939	1670.9774	1685.4327	1844.1954	3560.6408
N=C1ON=C(O1)N(=O)=O	[NH][C@H]1ON=C(O1)N(=O)=O	
InChI=1S/C2HN3O4/c3-1-8-2(4-9-1)5(6)7/h3H	InChI=1S/C2H2N3O4/c3-1-8-2(4-9-1)5(6)7/h1,3H/t1-/m1/s1
