11
gdb 21367	5.71102	2.37621	1.67803	6.9887	56.62	-0.2434	-0.016	0.2275	677.707	0.075763	-389.744309	-389.739047	-389.738103	-389.773489	20.266	
N	-0.0213596505	 1.3580899925	 0.0100306358	-0.40038
C	 1.3015107398	 1.7953416988	-0.0005537023	-0.067053
C	 2.1294557069	 0.7154596706	-0.0145451011	-0.117177
N	 1.2892772349	-0.3913591149	-0.0123841979	 0.046071
N	 1.3189312342	-1.7517278828	-0.0200246272	-0.173125
N	 0.0663276704	-2.1081293423	-0.0101348022	-0.10015
N	-0.8016844084	-1.0586393302	 0.0043990713	-0.356451
C	-0.0063203791	-0.0044536721	 0.0023869119	 0.54542
H	-0.8428004627	 1.9354639168	 0.0213499109	 0.292816
H	 1.5437788459	 2.8446703513	 0.0028388571	 0.160657
H	 3.2016109485	 0.6422150023	-0.0254032463	 0.169371
224.3497	335.8129	393.9149	464.9195	605.0143	681.5327	712.2162	715.7973	774.5062	795.8183	806.105	951.7821	1006.2631	1070.5919	1101.6271	1110.2129	1178.7011	1270.55	1301.3389	1349.0231	1402.6738	1477.6948	1589.9487	1635.6712	3283.8442	3314.7577	3701.4829
N1C=CN2N=NN=C12	[nH]1ccn2nnnc12	
InChI=1S/C3H3N5/c1-2-8-3(4-1)5-6-7-8/h1-2H,(H,4,5,7)	InChI=1S/C3H3N5/c1-2-8-3(4-1)5-6-7-8/h1-2H,(H,4,5,7)
