11
gdb 130616	2.57892	1.79342	1.21842	3.0275	61.07	-0.2687	-0.1119	0.1568	937.693	0.064435	-488.649577	-488.642335	-488.641391	-488.682139	25.359	
O	 0.0977746128	-0.1125034669	 0.2475329742	-0.273516
C	 0.0479684034	 1.0674438166	 0.0203144743	 0.268454
C	-1.2611675874	 1.788841476	-0.1310685912	-0.037842
N	-1.6335710835	 2.8099749472	-0.8047114374	-0.016821
O	-0.7939705246	 3.4038062855	-1.7542389905	-0.220064
C	 0.5410033063	 3.2079158058	-1.9135081113	 0.165317
N	 1.4358224955	 2.6865239856	-1.1898987892	-0.268708
C	 1.2655210424	 2.000212775	 0.0058689496	 0.312876
O	 2.0043472041	 2.0862551112	 0.9483262201	-0.280179
H	-2.0607914277	 1.394797827	 0.4952418781	 0.179432
H	 0.8062176087	 3.6791772469	-2.8588157767	 0.171053
63.5781	89.9597	238.9711	289.1208	307.8052	413.0352	464.12	522.9513	621.3055	680.3175	783.8426	800.8441	842.7248	878.6509	924.5212	970.0986	1006.703	1132.9112	1201.9011	1315.5497	1423.6635	1647.2575	1713.4897	1807.0774	1825.6318	3154.1498	3163.3041
O=C1C=NOC=NC1=O	O=c1cnocnc1=O	
InChI=1S/C4H2N2O3/c7-3-1-6-9-2-5-4(3)8/h1-2H	InChI=1S/C4H2N2O3/c7-3-1-6-9-2-5-4(3)8/h1-2H
