9
gdb 23813	3.4592	2.37809	1.40926	3.4026	49.25	-0.2959	-0.1154	0.1804	743.0844	0.046905	-474.584811	-474.578739	-474.577794	-474.615307	21.602	
F	 0.0236098518	 0.0761137846	 0.165309025	-0.013245
C	-0.0186790519	 1.3804606363	 0.0458823631	 0.122413
C	-1.1740308345	 2.0601194289	-0.0407314849	-0.088293
N	-1.1728619018	 3.4420881297	-0.1662051282	-0.091097
N	-0.1494885193	 4.1220668644	-0.2059009369	 0.069575
O	 1.1385261775	 3.4398228639	-0.11620215	-0.265463
C	 1.273033763	 2.0795832198	 0.010167771	 0.409649
O	 2.3517702452	 1.5657977229	 0.0802051036	-0.314108
H	-2.14553379	 1.5840429396	-0.0183988326	 0.17057
117.6955	230.6495	289.3699	395.0223	421.5755	528.7586	572.0569	628.9588	640.7194	785.8981	823.8028	923.554	928.2235	1103.3562	1120.8645	1312.7136	1397.1984	1600.4453	1685.4128	1854.5106	3228.0373
FC1=CN=NOC1=O	Fc1cnnoc1=O	
InChI=1S/C3HFN2O2/c4-2-1-5-6-8-3(2)7/h1H	InChI=1S/C3HFN2O2/c4-2-1-5-6-8-3(2)7/h1H
