10
gdb 21788	7.61564	1.33305	1.13447	4.4332	51.5	-0.2798	-0.1053	0.1745	920.9651	0.060031	-450.612079	-450.605571	-450.604627	-450.643199	22.534	
O	-0.1088171271	-0.0096725627	-0.0011608793	-0.207814
C	-0.0120514439	 1.1864649703	 0.006804254	 0.103943
C	 1.2842139396	 1.9156294409	-0.0012943194	 0.332427
N	 2.4473548092	 1.3431353619	-0.0179011701	-0.125964
O	 3.3753036972	 2.3872646093	-0.0197241144	-0.214266
C	 2.7353248006	 3.6153801206	-0.0036166612	 0.520541
O	 3.2740071944	 4.6794048217	-0.0013636061	-0.371813
N	 1.3890759372	 3.2835680609	 0.0077625774	-0.43209
H	-0.8989528698	 1.8565086119	 0.0214000115	 0.09833
H	 0.6499723227	 3.9658498853	 0.0207948576	 0.296706
91.6393	182.1858	189.426	315.0887	419.4543	463.0718	533.9876	655.395	734.9352	764.3218	771.5962	947.2601	953.793	1018.5229	1030.2474	1196.7548	1239.3456	1416.8898	1491.5753	1598.7856	1832.6853	1924.6378	2899.7493	3679.2501
O=CC1=NOC(=O)N1	O=Cc1noc(=O)[nH]1	
InChI=1S/C3H2N2O3/c6-1-2-4-3(7)8-5-2/h1H,(H,4,5,7)	InChI=1S/C3H2N2O3/c6-1-2-4-3(7)8-5-2/h1H,(H,4,5,7)
