10
gdb 23999	5.49179	0.99991	0.84589	2.1392	71.76	-0.2957	-0.1073	0.1883	1202.3718	0.055616	-430.50842	-430.501542	-430.500598	-430.540268	24.038	
N	 0.1893280764	-1.097359367	-0.0057206097	-0.306688
C	 0.0771188571	 0.0547851631	 0.0021016591	 0.235047
C	-0.0978164751	 1.4534386691	 0.0121488631	 0.232703
C	-1.201582598	 2.2608985384	 0.0321746087	-0.163997
N	-0.7989974406	 3.5723090143	 0.0335502832	-0.276059
C	 0.5017887198	 3.5109620898	 0.0147688201	 0.307074
O	 1.0079516069	 2.255555616	 0.0007955376	-0.178359
C	 1.4218827702	 4.5913562387	 0.0075477722	 0.276703
N	 2.1720497872	 5.4710063957	 0.0016545854	-0.300663
H	-2.240804214	 1.9748506421	 0.0453705391	 0.174238
121.8855	122.3789	211.452	214.5941	466.9188	498.4081	512.3823	540.1344	605.3962	656.914	688.2425	748.5233	899.078	993.5218	1011.0194	1169.1977	1224.2288	1271.1956	1343.4519	1528.0413	1585.256	2353.7657	2366.1577	3280.4774
N#CC1=CN=C(O1)C#N	N#Cc1cnc(o1)C#N	
InChI=1S/C5HN3O/c6-1-4-3-8-5(2-7)9-4/h3H	InChI=1S/C5HN3O/c6-1-4-3-8-5(2-7)9-4/h3H
