11
gdb 23621	4.25572	1.87135	1.2998	2.6177	56.59	-0.2454	-0.0425	0.2029	822.4255	0.073261	-438.708103	-438.702138	-438.701194	-438.738472	22.124	
F	 0.0685258049	 0.066712634	 0.0163860681	-0.033233
C	-0.0743270951	 1.367913348	-0.0139737952	 0.401035
C	-1.224624403	 2.0255883095	 0.1237568332	-0.363316
C	-1.2042671873	 3.484492028	 0.0641162927	 0.353222
N	-2.2664931335	 4.1785668165	 0.1878219949	-0.518725
N	 0.0768007395	 4.0756989187	-0.1407530491	-0.29749
C	 1.0912422704	 3.3334589821	-0.2558763422	 0.131282
O	 1.124193859	 1.9602439664	-0.2071654914	-0.20247
H	-2.1537419999	 1.4962409484	 0.2762641076	 0.144885
H	-2.026822973	 5.1693147074	 0.1152191786	 0.225098
H	 2.0935545882	 3.717621821	-0.4131440672	 0.159713
129.6448	204.1481	367.7864	432.7569	467.7099	541.7838	567.5192	656.3716	738.3227	799.0809	866.3601	906.3746	917.5231	947.9867	960.943	1066.4864	1148.855	1243.3932	1302.7837	1399.2664	1415.0936	1676.5227	1711.8375	1766.7157	3206.3098	3248.1377	3468.3049
FC1=CC(=N)N=CO1	F[C@H]1C=C([NH])N=CO1	
InChI=1S/C4H3FN2O/c5-3-1-4(6)7-2-8-3/h1-2,6H	InChI=1S/C4H4FN2O/c5-3-1-4(6)7-2-8-3/h1-3,6H/t3-/m1/s1
