11
gdb 27030	3.04002	1.37968	0.94957	5.1518	62.23	-0.2405	-0.0369	0.2036	1097.2245	0.066155	-488.740365	-488.732867	-488.731923	-488.772595	27.047	
N	 0.1565343115	 1.3737510053	 0.1726023181	-0.598137
C	-0.0198097884	 0.0375963421	 0.0563274259	 0.300706
C	-1.1112491141	-0.762911786	 0.0130141601	 0.154947
O	-0.6564434261	-2.0947896372	-0.0223015736	-0.241816
C	 0.6912386878	-2.0699516103	-0.0165951882	 0.502159
O	 1.4338925771	-2.9905923056	-0.0496781805	-0.347318
O	 1.0978856269	-0.733566896	 0.0353001598	-0.217259
C	-2.4742731961	-0.4605541191	 0.000511321	 0.208536
N	-3.5950043147	-0.1567013176	-0.0120858632	-0.341677
H	 1.0345207784	 1.739699667	-0.1636298767	 0.28793
H	-0.6500050622	 1.9530171274	-0.0042237527	 0.29193
122.0174	131.8631	201.8013	284.938	323.7408	355.0031	470.3348	483.8261	527.1796	557.1942	649.0768	676.8465	691.4628	766.5902	819.3472	940.5798	1005.2447	1116.5322	1209.0554	1312.5063	1453.9047	1626.7788	1745.5874	1964.0287	2322.5985	3584.2064	3696.338
NC1=C(OC(=O)O1)C#N	Nc1c(oc(=O)o1)C#N	
InChI=1S/C4H2N2O3/c5-1-2-3(6)9-4(7)8-2/h6H2	InChI=1S/C4H2N2O3/c5-1-2-3(6)9-4(7)8-2/h6H2
