10
gdb 131419	3.19293	1.5496	1.04328	4.1267	51.96	-0.2891	-0.0988	0.1903	994.6623	0.052646	-545.705155	-545.698062	-545.697117	-545.737396	25.291	
O	-0.1175816515	 1.3486986259	-0.1851115236	-0.36584
C	 0.0770483113	 0.0420264444	-0.0592285458	 0.548633
N	 1.2298056345	-0.4264397901	 0.2288197317	-0.250899
O	 1.3266797346	-1.8350235562	 0.3390721473	-0.232811
C	 0.2616961627	-2.6512390471	 0.1517290012	 0.348388
O	 0.3730147576	-3.8339624502	 0.2509396261	-0.268052
C	-1.0805229997	-1.9984191558	-0.1901106732	 0.314296
O	-2.0836283955	-2.5981600592	-0.3775109367	-0.242687
O	-1.0760566037	-0.6169361664	-0.2763867794	-0.187435
H	 0.7286923598	 1.7906904748	-0.0231787376	 0.336407
75.879	101.2928	294.7314	343.5906	376.3025	449.0234	475.8651	499.2376	501.2144	634.1282	677.2297	697.5256	800.8518	816.0031	978.8973	1053.161	1081.9443	1251.3684	1263.6624	1457.0013	1722.6544	1867.49	1914.3089	3775.3979
OC1=NOC(=O)C(=O)O1	Oc1noc(=O)c(=O)o1	
InChI=1S/C3HNO5/c5-1-2(6)9-4-3(7)8-1/h(H,4,7)	InChI=1S/C3HNO5/c5-1-2(6)9-4-3(7)8-1/h(H,4,7)
