11
gdb 123281	10.16152	0.69925	0.65423	2.1607	88.09	-0.2653	-0.086	0.1793	1558.6746	0.065494	-414.34819	-414.340828	-414.339883	-414.380748	26.143	
C	 0.11149055	-3.7329161238	-0.0194920628	-0.568141
C	 0.0574842896	-2.5264957229	-0.0121809001	 0.245403
C	-0.0011964354	-1.1717027493	-0.0040686355	 0.166844
C	-0.0603749716	 0.0383206049	 0.003214676	 0.281967
C	-0.1085821504	 1.4421504987	 0.0114344112	 0.100331
N	-1.1584485355	 2.22138621	 0.0299100459	-0.302284
C	-0.5823643917	 3.461711374	 0.0291500605	-0.00676
N	 0.7248304681	 3.472691453	 0.0123182468	-0.08544
O	 1.057524087	 2.1228234259	 0.0005278217	-0.192501
H	 0.1578473787	-4.7944584234	-0.0258722291	 0.208727
H	-1.1506266388	 4.380324783	 0.0417738554	 0.151854
73.7251	84.7451	226.1281	231.0579	421.0422	446.6494	486.831	528.1175	567.9446	621.753	623.5073	653.1648	773.8638	929.584	931.214	962.6923	982.8542	1060.9516	1185.9949	1265.2672	1307.8723	1493.4529	1589.9933	2187.0104	2351.15	3263.5007	3498.4755
C#CC#CC1=NC=NO1	C#CC#Cc1ncno1	
InChI=1S/C6H2N2O/c1-2-3-4-6-7-5-8-9-6/h1,5H	InChI=1S/C6H2N2O/c1-2-3-4-6-7-5-8-9-6/h1,5H
