11
gdb 21622	4.1689	2.07439	1.38516	3.4461	56.5	-0.2531	-0.08	0.173	792.4216	0.07424	-426.918252	-426.911755	-426.910811	-426.948992	23.636	
N	 0.0147862249	 1.3064395168	 0.0080202365	-0.529295
C	-0.0436333048	-0.0344026932	 0.0008872595	 0.494055
N	-1.2036154503	-0.6412148896	 0.0040173228	-0.380746
C	-1.1883405075	-2.0078752861	-0.00361012	 0.455625
O	-2.1357893925	-2.7541637292	-0.0026664186	-0.370809
N	 0.1287252222	-2.5644868418	-0.0142082719	-0.249282
N	 1.2703906025	-1.8977128048	-0.0168831858	-0.017197
N	 1.2299499529	-0.6261339132	-0.0095319634	-0.260047
H	 0.909668979	 1.7629333468	 0.0055751744	 0.284095
H	-0.8382211834	 1.83830506	 0.0157878688	 0.28374
H	 0.2208937069	-3.5717982555	-0.0203983524	 0.289863
129.6655	176.2051	230.6158	360.2942	428.9494	514.2104	575.6003	590.7103	593.5884	708.4956	770.5153	775.9447	821.4225	921.6586	1025.2328	1075.5388	1172.9604	1257.474	1388.3706	1430.9058	1537.6677	1593.7183	1670.4768	1849.3086	3602.3236	3623.2948	3762.3193
NC1=NC(=O)NN=N1	Nc1nc(=O)[nH]nn1	
InChI=1S/C2H3N5O/c3-1-4-2(8)6-7-5-1/h(H3,3,4,5,6,8)	InChI=1S/C2H3N5O/c3-1-4-2(8)6-7-5-1/h(H3,3,4,5,6,8)
