10
gdb 130798	2.62851	1.89937	1.32363	4.1048	57.53	-0.2905	-0.1399	0.1507	877.6644	0.051301	-504.691147	-504.683836	-504.682892	-504.723371	25.505	
O	 0.1824051454	-0.1904603721	-0.0888712243	-0.259735
C	 0.0830388354	 0.9873927707	-0.1977433934	 0.380965
O	-1.100095097	 1.5605511011	-0.6050640697	-0.268197
N	-1.4449303895	 3.0252858053	-0.3783863277	 0.052682
N	-0.6973933532	 3.8545587807	-0.8452690258	-0.021586
C	 0.5436152453	 3.5831469207	-1.494819364	 0.095177
N	 1.4461357874	 2.8244020589	-1.0450153015	-0.178164
C	 1.2199016799	 1.9976318638	 0.066627041	 0.268824
O	 1.8634229287	 2.006571377	 1.074948653	-0.254883
H	 0.6921898976	 4.1898401339	-2.3843738176	 0.184917
76.6047	133.8404	231.8437	271.7778	307.9121	327.7542	428.7905	518.6189	606.3485	663.0619	723.6016	755.8823	835.4082	865.178	939.7285	977.0254	1013.8087	1163.668	1379.3214	1661.0191	1735.5996	1840.5767	1878.7348	3182.4071
O=C1ON=NC=NC1=O	O=c1onncnc1=O	
InChI=1S/C3HN3O3/c7-2-3(8)9-6-5-1-4-2/h1H	InChI=1S/C3HN3O3/c7-2-3(8)9-6-5-1-4-2/h1H
