11
gdb 20610	3.56899	1.98357	1.28517	4.0799	59.93	-0.2895	-0.0682	0.2212	852.2028	0.071477	-393.579293	-393.572357	-393.571412	-393.610789	24.023	
C	 0.0624495807	 1.5190997199	 0.0552105146	-0.502834
C	-0.0173828237	 0.0381577113	 0.0762069269	 0.334846
C	-1.0706816305	-0.8330752277	-0.0594081171	 0.097352
N	-0.5555667493	-2.1113462713	 0.0446204605	-0.156349
N	 0.6763744907	-2.0803235136	 0.2250859013	 0.006749
O	 1.0803500436	-0.6742520994	 0.2533981417	-0.205318
C	-2.4396359829	-0.5458668521	-0.2671659403	 0.233449
N	-3.5511331109	-0.2713446046	-0.4367384552	-0.326954
H	 0.7265667898	 1.8530635102	-0.7477641204	 0.173175
H	-0.9289024344	 1.9473775003	-0.0999608901	 0.17271
H	 0.4695524569	 1.8917461169	 1.0000858381	 0.173175
106.2337	141.5868	178.7381	260.7593	313.9557	522.9954	529.5664	561.0507	612.195	661.0626	701.9948	735.236	993.4501	1025.0187	1064.8678	1162.1983	1263.6984	1387.4582	1421.2673	1472.7223	1475.6213	1503.5094	1605.7061	2358.3277	3051.1499	3113.9232	3150.5449
CC1=C(N=NO1)C#N	Cc1c(nno1)C#N	
InChI=1S/C4H3N3O/c1-3-4(2-5)6-7-8-3/h1H3	InChI=1S/C4H3N3O/c1-3-4(2-5)6-7-8-3/h1H3
