9
gdb 21766	5.89742	2.40981	1.71076	2.9343	49.7	-0.2878	-0.0939	0.1939	642.0642	0.050423	-425.615378	-425.610462	-425.609518	-425.644413	18.246	
O	-0.0429681873	 1.3190121669	 0.0096777273	-0.230549
N	 1.3288629359	 1.7579301977	-0.0011278263	 0.033234
N	 2.0980583726	 0.7688629194	-0.0139566351	-0.04237
N	 1.3405571277	-0.3526674876	-0.0128388617	-0.006952
C	 1.3535976524	-1.7331116007	-0.020514628	 0.019721
N	 0.1110185259	-2.1418351523	-0.0110340131	-0.190176
N	-0.7675768707	-1.0487912773	 0.0034987039	-0.333191
C	 0.0205252134	-0.0177099233	 0.0016589951	 0.565876
H	 2.241695	-2.3406553728	-0.0323382721	 0.184407
213.5809	344.1588	468.424	633.603	648.8812	692.3005	713.7905	748.6922	783.0625	808.4197	966.9472	992.3652	1026.4474	1207.7443	1243.9262	1359.3927	1410.8967	1472.6961	1479.3611	1614.6998	3303.7165
O1N=NN2C=NN=C12	o1nnn2cnnc12	
InChI=1S/C2HN5O/c1-3-4-2-7(1)5-6-8-2/h1H	InChI=1S/C2HN5O/c1-3-4-2-7(1)5-6-8-2/h1H
