11
gdb 21378	5.72058	2.37801	1.67975	5.3603	56.27	-0.24	-0.0172	0.2228	676.2929	0.076398	-389.755798	-389.750605	-389.749661	-389.784946	19.943	
N	-0.029287687	 1.360832029	 0.0100271716	-0.405746
C	 1.2882932651	 1.7582858125	-0.0003983511	 0.065542
N	 2.1418678389	 0.7692828816	-0.0144240575	-0.246407
N	 1.3170798036	-0.3345445222	-0.0125259386	 0.019378
C	 1.3357052231	-1.7058753857	-0.0205362733	-0.005337
N	 0.0955962018	-2.1421224577	-0.0104981869	-0.212456
N	-0.7879599761	-1.0656314334	 0.0039852003	-0.358428
C	-0.0073062554	-0.0163430532	 0.0022483984	 0.521609
H	-0.8436595699	 1.9487542901	 0.0217071424	 0.297053
H	 1.5816947161	 2.7963370167	 0.0025649174	 0.167061
H	 2.2298754698	-2.3047199976	-0.0327376727	 0.15773
221.662	336.467	410.9584	481.89	640.8669	657.5124	721.0305	749.5006	780.6372	787.9063	858.4553	956.2119	993.9725	1011.1772	1101.2111	1185.124	1206.9498	1292.0844	1344.0898	1417.2496	1422.2225	1473.8354	1570.0495	1642.2305	3275.1237	3297.9234	3698.7136
N1C=NN2C=NN=C12	[nH]1cnn2cnnc12	
InChI=1S/C3H3N5/c1-4-3-7-5-2-8(3)6-1/h1-2H,(H,4,6,7)	InChI=1S/C3H3N5/c1-4-3-7-5-2-8(3)6-1/h1-2H,(H,4,6,7)
