11
gdb 21841	7.88009	1.17712	1.05814	1.0998	53.86	-0.2766	-0.0356	0.241	1000.8041	0.07181	-434.532949	-434.526443	-434.525499	-434.564606	22.365	
O	-0.0115606468	-0.0485494868	 0.1300096464	-0.241234
C	 0.0748706221	 1.1085750786	-0.12092234	 0.157819
O	 0.9218660923	 1.9362007231	 0.5694244206	-0.217331
C	 0.8902865267	 3.2705731481	 0.2716396505	 0.186777
C	-0.1488401027	 4.1487606252	 0.3027554281	-0.008674
O	 0.2924119009	 5.3692675483	-0.0316570117	-0.153453
N	 1.6607393665	 5.3166934626	-0.2796898781	-0.113074
C	 2.0062608908	 4.067584721	-0.1009643246	-0.037138
H	-0.4824934816	 1.652141	-0.9044599331	 0.101486
H	-1.1958490003	 4.0580225962	 0.5432803296	 0.168284
H	 3.0340569522	 3.7632692138	-0.2340544976	 0.156538
58.4179	140.7325	161.7238	386.5373	423.2773	490.1034	618.8665	676.2669	820.4707	831.69	895.0692	907.5532	924.0046	1037.9951	1043.9571	1104.2515	1149.307	1202.4647	1300.5471	1398.9325	1411.2507	1483.0659	1647.1055	1888.3166	2987.782	3256.6545	3274.7593
O=COC1=CON=C1	O=COc1conc1	
InChI=1S/C4H3NO3/c6-3-7-4-1-5-8-2-4/h1-3H	InChI=1S/C4H3NO3/c6-3-7-4-1-5-8-2-4/h1-3H
