10
gdb 132704	3.20939	1.38127	0.96567	1.9358	51.83	-0.2837	-0.0642	0.2194	1020.1685	0.053264	-562.008586	-562.002224	-562.00128	-562.039798	23.357	
F	 0.0073582413	 0.017937983	 0.0036943469	-0.045247
C	-0.0248884422	 1.3436822636	 0.0107596281	 0.094303
C	-1.2093953248	 2.0536840932	 0.0297820156	-0.08452
N	-1.2324960929	 3.3929910822	 0.0366847667	-0.301849
C	-0.0515676042	 3.9739882194	 0.0237060363	 0.364378
F	-0.0495984394	 5.2890897911	 0.0320423919	-0.045053
N	 1.1483243259	 3.4072052117	 0.0058514319	-0.350515
C	 1.1513899479	 2.0971106381	-0.000618401	 0.242814
F	 2.3138482882	 1.4818012926	-0.018733782	-0.028251
H	-2.1605912598	 1.5298139852	 0.0396253055	 0.15394
134.5349	241.761	281.2647	380.0566	401.1383	477.9755	493.8654	558.6881	618.0641	726.0371	775.4978	804.9596	812.2019	973.6893	1029.1812	1240.0271	1289.2203	1305.9632	1377.8858	1474.2706	1520.9347	1617.1792	1660.6528	3184.9945
FC1=CN=C(F)N=C1F	Fc1cnc(F)nc1F	
InChI=1S/C4HF3N2/c5-2-1-8-4(7)9-3(2)6/h1H	InChI=1S/C4HF3N2/c5-2-1-8-4(7)9-3(2)6/h1H
