9
gdb 21767	5.80216	2.49184	1.74319	0.7033	49.89	-0.2983	-0.0882	0.2101	634.0971	0.051091	-425.630153	-425.625308	-425.624364	-425.659123	17.876	
O	-0.1510671272	 1.2889107243	 0.010587753	-0.238316
N	 1.2416775576	 1.7664190141	-0.0005991209	 0.020306
N	 2.01538558	 0.7810990811	-0.0130333365	-0.027941
N	 1.2723763165	-0.3336786187	-0.0117830498	 0.095058
N	 1.4695841887	-1.6742448199	-0.0205060005	-0.250451
C	 0.1994122283	-2.0760878912	-0.0110133007	 0.059925
N	-0.7861180008	-1.1082466973	 0.0041244351	-0.379038
C	-0.0469089644	-0.0301347576	 0.0025192854	 0.561779
H	-0.0411393187	-3.1289210348	-0.014110075	 0.158678
223.0174	355.6064	478.1097	626.1615	635.3182	652.7029	739.334	761.373	798.6232	923.0307	957.7882	1023.6465	1178.2351	1234.0782	1268.3508	1347.4261	1410.2654	1446.6465	1471.5393	1627.3613	3267.838
O1N=NN2N=CN=C12	o1nnn2ncnc12	
InChI=1S/C2HN5O/c1-3-2-7(4-1)5-6-8-2/h1H	InChI=1S/C2HN5O/c1-3-2-7(4-1)5-6-8-2/h1H
