10
gdb 21983	5.6456	1.76332	1.34365	6.6421	51.63	-0.2917	-0.086	0.2057	799.3183	0.062384	-446.705594	-446.699678	-446.698733	-446.73666	20.44	
O	-0.08665752	 0.0246249984	 0.0031281321	-0.334016
N	-0.053736163	 1.2432438674	 0.007188666	 0.374451
O	 0.9437603548	 1.9465002859	 0.0035992065	-0.342473
C	-1.3449189042	 1.9318247047	 0.0174427309	 0.452503
N	-1.4073633579	 3.2506449539	 0.0207142038	-0.226589
N	-2.7381806285	 3.4403440875	 0.0298590717	-0.164443
C	-3.3912051584	 2.2549333491	 0.0320912396	 0.038217
N	-2.520481143	 1.266570343	 0.0239948637	-0.271405
H	-3.1060460171	 4.3796187818	 0.0341131968	 0.30154
H	-4.4668640927	 2.1659485383	 0.0392541989	 0.172215
43.81	228.8488	245.6722	442.1342	540.6152	601.333	676.0111	692.0578	813.4726	848.7973	869.3312	990.6819	1008.3407	1116.413	1181.8904	1296.3626	1354.1725	1407.8584	1438.4027	1462.8163	1550.3498	1662.4124	3267.0231	3644.5199
O=N(=O)C1=NNC=N1	O=N(=O)c1n[nH]cn1	
InChI=1S/C2H2N4O2/c7-6(8)2-3-1-4-5-2/h1H,(H,3,4,5)	InChI=1S/C2H2N4O2/c7-6(8)2-3-1-4-5-2/h1H,(H,3,4,5)
