11
gdb 132813	2.34731	1.78316	1.01335	0.1122	56.43	-0.2709	-0.0383	0.2327	999.1248	0.06462	-545.934864	-545.928207	-545.927262	-545.966195	24.747	
F	 0.02058386	 0.0223363432	 0.0040693784	-0.052647
C	-0.0139031117	 1.350246688	 0.0108022361	 0.12517
C	-1.2191449745	 2.040121953	 0.0300575312	-0.098339
N	-1.2846124778	 3.3714442172	 0.0372199356	-0.25644
C	-0.1455982539	 4.063733961	 0.025380652	-0.098339
C	 1.1014046024	 3.4525784581	 0.0059544231	 0.12517
F	 2.2202231014	 4.1686053319	-0.0054998704	-0.052647
C	 1.179918319	 2.0638957963	-0.0016562263	 0.065497
F	 2.3478371207	 1.4442617826	-0.0200784408	-0.030552
H	-2.1501689603	 1.4811515792	 0.0397644876	 0.136563
H	-0.2048279653	 5.1480790796	 0.0312975636	 0.136563
154.764	257.1575	264.6025	296.2963	319.2391	475.8799	513.1206	585.7701	596.2399	602.5106	693.7756	740.8986	844.7355	906.1551	950.2108	1077.472	1181.4682	1281.6882	1286.8567	1313.8986	1352.9121	1469.1878	1567.5833	1630.0022	1645.8423	3176.4921	3180.3295
FC1=CN=CC(F)=C1F	Fc1cncc(F)c1F	
InChI=1S/C5H2F3N/c6-3-1-9-2-4(7)5(3)8/h1-2H	InChI=1S/C5H2F3N/c6-3-1-9-2-4(7)5(3)8/h1-2H
