11
gdb 21364	3.81987	2.02164	1.32199	4.0274	66.42	-0.2015	-0.0678	0.1337	822.0205	0.073112	-393.601837	-393.595327	-393.594383	-393.632626	23.759	
N	-0.0723587315	 1.5028558309	 0.0119141353	-0.341522
C	 1.2891776891	 1.7976387595	-0.000759106	-0.017358
C	 2.0208544542	 0.6617831869	-0.0147404541	-0.279019
C	 1.0604112246	-0.4241445891	-0.0107632853	 0.239539
C	-0.318451771	 0.130994503	 0.0071489066	 0.358471
O	-1.3980812904	-0.4213180822	 0.0162422112	-0.389754
N	 1.4361607733	-2.8276556089	-0.0291772375	-0.218557
N	 1.284419876	-1.7045371595	-0.0196099813	 0.114437
H	-0.8224747489	 2.1724178706	 0.025473181	 0.269488
H	 1.6255591093	 2.8223009658	 0.0011903242	 0.140138
H	 3.0936062251	 0.569281543	-0.026787084	 0.124136
140.8239	147.4373	231.84	421.0438	425.8448	521.4976	541.1225	565.0321	632.2654	684.857	751.272	755.1156	829.1003	850.6916	1078.3228	1089.0308	1153.3277	1230.1565	1328.1477	1397.968	1458.4393	1607.3965	1809.2315	2219.3165	3259.8087	3283.4931	3680.0248
N1C=CC2=C1ON=N2	N1[CH]C=C(C1=O)[N][N]	
InChI=1S/C4H3N3O/c1-2-5-4-3(1)6-7-8-4/h1-2,5H	InChI=1S/C4H3N3O/c5-7-3-1-2-6-4(3)8/h1-2H,(H,6,7,8)
