11
gdb 21899	3.80365	1.9689	1.29735	1.6677	61.62	-0.2328	-0.025	0.2078	842.7956	0.073139	-393.549805	-393.543125	-393.542181	-393.580555	24.822	
O	 0.1340632187	 1.3351846751	 0.0281066541	-0.415312
C	 0.0832033443	-0.0025959135	 0.0286023042	 0.26528
N	 0.080009691	-0.7407152735	-1.072106216	-0.2854
N	 0.0217780596	-1.9858710059	-0.5846603197	-0.104168
N	-0.0126855187	-2.113294537	 0.7242260692	-0.268913
C	 0.0254070581	-0.8442831508	 1.1686798058	 0.132614
C	 0.0081391728	-0.4866364633	 2.5332707045	 0.287518
C	-0.0052668208	-0.1520884954	 3.6886798494	-0.419187
H	 0.1661030252	 1.6310466094	-0.8903652567	 0.312688
H	 0.0051891111	-2.7870055568	-1.1937786362	 0.298432
H	-0.0172298012	 0.1401615216	 4.7093839013	 0.196447
140.6272	170.5232	330.0557	370.7422	390.3795	439.108	509.5215	557.8595	577.8623	609.3247	676.6909	697.8094	760.9737	777.5187	982.4026	1145.1984	1203.529	1244.4801	1292.4715	1377.5096	1463.4707	1566.5215	1595.9678	2244.9784	3503.5537	3675.7322	3799.5721
OC1=NNN=C1C#C	Oc1n[nH]nc1C#C	
InChI=1S/C4H3N3O/c1-2-3-4(8)6-7-5-3/h1H,(H2,5,6,7,8)	InChI=1S/C4H3N3O/c1-2-3-4(8)6-7-5-3/h1H,(H2,5,6,7,8)
