10
gdb 132224	2.03507	1.87283	0.97529	3.6334	51.65	-0.2758	-0.0528	0.2231	1024.572	0.053016	-557.8554	-557.848826	-557.847882	-557.886986	23.812	
F	 0.1556206571	 0.0901373508	 0.0013892272	-0.017541
C	-0.0406648753	 1.3786805664	 0.0109998242	 0.421867
C	-1.2176377436	 2.0021192072	 0.0306880969	-0.449143
C	-1.2411789024	 3.472597372	 0.0389620773	 0.416262
O	-2.2516835695	 4.1279540634	 0.0566281693	-0.323632
N	 0.0431956114	 4.101190961	 0.0245354456	-0.399092
C	 1.0652835348	 3.3743785601	 0.0061680588	 0.42479
F	 2.2773587472	 3.8517903404	-0.0073631025	-0.024954
O	 1.151954353	 2.0202766411	-0.0021513465	-0.204819
H	-2.1437365329	 1.4466864077	 0.0405825197	 0.156263
124.6234	191.9577	215.349	348.7154	390.7448	490.9902	546.1564	626.9207	649.6474	659.3561	720.6082	770.2872	866.3594	905.9715	1000.6065	1042.7065	1200.6502	1242.3537	1326.1347	1394.3707	1700.1265	1773.3012	1832.0282	3251.4956
FC1=CC(=O)N=C(F)O1	Fc1cc(=O)nc(F)o1	
InChI=1S/C4HF2NO2/c5-2-1-3(8)7-4(6)9-2/h1H	InChI=1S/C4HF2NO2/c5-2-1-3(8)7-4(6)9-2/h1H
