10
gdb 21747	5.67439	2.31384	1.64362	1.9604	52.79	-0.2557	-0.0314	0.2243	676.5015	0.063095	-413.436491	-413.43153	-413.430586	-413.465544	18.908	
O	-0.0836743803	 1.3116226576	 0.0097562349	-0.205679
C	 1.2532012651	 1.7378021754	-0.0004560528	 0.044822
N	 2.1467607794	 0.8075780352	-0.0142052798	-0.322007
C	 1.387150877	-0.3611421835	-0.0131724891	 0.123298
C	 0.0755258639	-0.0158375144	 0.0012369651	 0.481229
O	-0.7680878071	-1.0222750255	 0.0039068253	-0.235244
N	 0.0747524922	-2.1994529901	-0.0102292436	-0.138034
C	 1.323808185	-1.77839196	-0.020207773	-0.073919
H	 1.3865500306	 2.8074508821	 0.0040296571	 0.169532
H	 2.1036955741	-2.5264321168	-0.031702264	 0.156002
226.8056	351.5322	477.5998	608.1328	636.3197	695.0394	749.668	764.1119	781.6767	812.5561	893.232	907.1139	977.3906	1013.0369	1174.0459	1193.5381	1308.6531	1428.4763	1450.3188	1521.3148	1558.3219	1625.8629	3250.1556	3290.6156
O1C=NC2=C1ON=C2	o1cnc2c1onc2	
InChI=1S/C4H2N2O2/c1-3-4(8-6-1)7-2-5-3/h1-2H	InChI=1S/C4H2N2O2/c1-3-4(8-6-1)7-2-5-3/h1-2H
