11
gdb 132684	3.15117	1.31546	0.92805	1.9207	56.44	-0.2591	-0.0471	0.2121	1067.8615	0.064585	-545.948105	-545.94154	-545.940596	-545.979394	24.701	
F	 0.0011430567	 0.0270028655	 0.0036037676	-0.068849
C	-0.0127046256	 1.35904683	 0.0104956405	 0.264575
C	-1.2186467865	 2.0407672384	 0.0303871699	-0.113111
N	-1.2647072566	 3.3776851414	 0.0377618989	-0.297699
C	-0.1429921336	 4.0471142545	 0.0258247403	 0.226701
F	-0.2050153767	 5.3718504677	 0.0332460632	-0.051307
C	 1.1163280799	 3.4384774212	 0.0055057647	 0.146513
F	 2.2166077124	 4.1817380744	-0.0058229873	-0.049319
C	 1.1898863801	 2.0592968681	-0.0024324787	-0.344451
H	-2.1583737319	 1.4988687053	 0.0405071194	 0.138185
H	 2.1450818119	 1.5499403633	-0.0180604285	 0.148762
147.0632	238.5911	287.2286	344.3422	417.1007	472.128	488.9735	506.2726	609.446	631.011	721.6876	753.5629	812.5354	909.9794	925.9657	1009.7632	1175.5483	1208.2857	1305.241	1321.3458	1354.5235	1480.2425	1525.5835	1636.8961	1652.4869	3191.2671	3222.4096
FC1=CN=C(F)C(F)=C1	Fc1cnc(F)c(F)c1	
InChI=1S/C5H2F3N/c6-3-1-4(7)5(8)9-2-3/h1-2H	InChI=1S/C5H2F3N/c6-3-1-4(7)5(8)9-2-3/h1-2H
