11
gdb 21699	3.52788	2.39049	1.42542	2.173	57.81	-0.2522	-0.0889	0.1633	771.5829	0.072081	-430.667775	-430.66121	-430.660266	-430.698409	24.302	
N	 0.0536673105	 1.3275500266	-0.0130555647	-0.545516
C	-0.028180256	-0.0190761375	 0.0177347613	 0.362824
N	-1.1884789616	-0.6140116291	 0.0383264813	-0.18646
O	-1.1946313019	-2.0023482748	 0.1152929774	-0.20052
N	-0.0805933526	-2.7585386273	 0.1591172415	-0.030117
C	 1.0752199847	-2.1738990296	 0.1202626461	-0.041977
C	 1.2601232757	-0.7429818764	 0.0368418746	 0.285683
O	 2.3311245285	-0.1572803384	-0.0212127993	-0.362018
H	 0.9698734268	 1.7107511378	-0.1837609706	 0.285166
H	-0.7674220086	 1.8818439521	-0.184516134	 0.276339
H	 1.9370938046	-2.8325188032	 0.1536389963	 0.156594
124.1461	247.4008	277.8862	311.6972	436.2896	458.0611	518.3499	551.4288	575.4183	602.8123	728.0607	803.9267	900.1285	918.0511	931.2234	972.3188	1144.0986	1251.829	1320.9285	1472.1404	1584.9112	1588.603	1638.5172	1754.3959	3194.4721	3598.5042	3734.3459
NC1=NON=CC1=O	Nc1noncc1=O	
InChI=1S/C3H3N3O2/c4-3-2(7)1-5-8-6-3/h1H,(H2,4,6)	InChI=1S/C3H3N3O2/c4-3-2(7)1-5-8-6-3/h1H,(H2,4,6)
