11
gdb 25152	3.86758	1.23389	0.93545	2.1412	67.01	-0.2927	-0.1146	0.1782	1107.0389	0.066966	-451.607868	-451.601005	-451.60006	-451.639627	24.683	
O	-0.0707093138	-0.0540802416	 0.0044531669	-0.306552
C	 0.0224153078	 1.1350286587	 0.008962867	 0.457889
O	-1.179637286	 1.8988867502	 0.0295352005	-0.196654
C	-1.1448832902	 3.2323816208	 0.0357919436	 0.152415
N	-0.1042271662	 3.9809168113	 0.0251375881	-0.322635
C	 1.1062837129	 3.3091913986	 0.0049915683	 0.222758
C	 1.2157457296	 1.9554736369	-0.00333763	-0.300767
C	 2.2822213625	 4.1357739436	-0.0070810476	 0.26222
N	 3.2402662577	 4.7828572084	-0.0170468722	-0.302645
H	-2.1417881812	 3.6632257399	 0.0517916202	 0.170472
H	 2.1703346368	 1.4473969033	-0.0190564449	 0.163498
127.5188	147.4872	156.9555	345.0955	435.7289	454.5911	478.4866	554.9272	604.4693	718.4011	730.138	766.6268	836.2501	903.9112	960.3173	981.873	1078.6936	1193.6384	1233.847	1347.6031	1421.8771	1594.3677	1650.2538	1880.8061	2357.8486	3196.6801	3236.434
O=C1OC=NC(=C1)C#N	O=c1ocnc(c1)C#N	
InChI=1S/C5H2N2O2/c6-2-4-1-5(8)9-3-7-4/h1,3H	InChI=1S/C5H2N2O2/c6-2-4-1-5(8)9-3-7-4/h1,3H
