11
gdb 21591	3.55966	2.30445	1.39886	5.9677	60.07	-0.2573	-0.0799	0.1774	781.7687	0.071339	-430.708983	-430.702013	-430.701068	-430.740185	25.125	
N	 0.0405663362	 1.2982773075	-0.1192834429	-0.535332
C	-0.0373205823	-0.0276888517	-0.0115912913	 0.213096
C	-1.1846338663	-0.7666226238	 0.0927849808	-0.129042
N	-1.0825033769	-2.1247644302	 0.195828772	 0.019615
N	-0.1400081468	-2.8447113996	 0.2147849649	-0.019444
O	 1.354345268	-1.9892715518	 0.087417753	-0.315564
C	 1.3303787986	-0.6952083232	-0.0137847775	 0.453035
O	 2.3119312207	 0.0210140646	-0.1096791613	-0.389162
H	 0.9771104524	 1.6756789145	-0.1863294736	 0.295493
H	-0.7662954007	 1.8973510842	-0.1337742977	 0.27715
H	-2.186890023	-0.3634047506	 0.1013188936	 0.130155
116.2449	153.106	199.8032	347.125	348.9873	469.5534	497.8255	544.5111	590.7873	600.2427	661.8608	776.2829	801.0112	815.9215	855.3105	1049.5371	1172.8303	1273.0052	1367.6648	1415.7076	1563.1017	1642.4962	1761.1797	1792.2654	3230.893	3551.184	3715.9463
NC1=CN=NOC1=O	Nc1cnnoc1=O	
InChI=1S/C3H3N3O2/c4-2-1-5-6-8-3(2)7/h1H,4H2	InChI=1S/C3H3N3O2/c4-2-1-5-6-8-3(2)7/h1H,4H2
