11
gdb 27519	2.1496	2.03442	1.04521	2.7967	57.06	-0.2867	-0.0462	0.2404	1009.1763	0.066003	-525.886733	-525.879714	-525.87877	-525.918893	25.434	
O	 0.0277097917	 1.2814052243	 0.144931992	-0.365492
C	-0.0923473221	-0.0238262231	-0.0067698238	 0.512381
N	-1.2001371455	-0.615360072	 0.1619300224	-0.332689
C	-1.2383635946	-1.9741610147	-0.0156909848	 0.447457
N	-2.2665524161	-2.6801885604	 0.1189796961	-0.494521
O	-0.0067106792	-2.6171641079	-0.3817336997	-0.257197
C	 1.1471200175	-1.9719132346	-0.5534929941	 0.494314
O	 2.1708551278	-2.4834433517	-0.8547267498	-0.321465
O	 1.0956044435	-0.5958596613	-0.3532215172	-0.261323
H	 0.9446573906	 1.5379445769	-0.0267497666	 0.331167
H	-2.0633957136	-3.6619299454	-0.0615630646	 0.247368
85.6106	118.508	193.3833	374.4115	387.327	485.8917	525.964	535.4901	616.5927	667.1614	698.4428	747.0994	763.9566	866.2914	874.6642	949.4577	1001.7727	1093.0276	1159.7764	1260.7218	1336.6461	1397.1112	1786.2621	1796.2525	1940.9519	3524.0428	3785.1399
OC1=NC(=N)OC(=O)O1	O[C]1N=C([NH])OC(=O)O1	
InChI=1S/C3H2N2O4/c4-1-5-2(6)9-3(7)8-1/h(H2,4,5,6)	InChI=1S/C3H2N2O4/c4-1-5-2(6)9-3(7)8-1/h(H2,4,5,6)
