11
gdb 129242	5.45117	1.38698	1.10566	0.2043	59.55	-0.2405	-0.0312	0.2093	966.0739	0.067006	-488.644598	-488.638518	-488.637574	-488.675228	23.204	
N	-0.0575578182	 1.2724609053	 0.0097211936	-0.541776
C	-0.0232363251	 0.027921659	 0.0031141884	 0.472357
O	 1.1479876546	-0.7858486776	-0.0074690092	-0.259768
C	 0.6540378256	-2.0388903486	-0.0112554062	 0.443903
C	-0.6843707954	-2.0639771347	-0.0040798684	 0.160519
O	-1.1500441967	-0.7632922386	 0.0051723014	-0.231511
C	-1.0007918887	-3.4319675315	-0.009399321	-0.099148
N	 0.110724052	-4.1565745197	-0.0193181317	-0.14223
O	 1.2112760248	-3.2260188013	-0.020427328	-0.223774
H	 0.8710775273	 1.6837213251	 0.0067823003	 0.257396
H	-1.9484057702	-3.9487168473	-0.0068979192	 0.164032
119.2107	261.5911	332.8854	345.6949	565.1131	589.5279	601.0137	701.595	730.0711	760.1969	776.9496	778.7032	807.6278	870.3993	891.7802	948.8057	973.9894	1119.5877	1189.0371	1267.1161	1396.0834	1471.1918	1539.6181	1706.7979	1838.3702	3263.0972	3566.3228
N=C1OC2=C(O1)C=NO2	[NH][C@@H]1Oc2c(O1)cno2	
InChI=1S/C4H2N2O3/c5-4-7-2-1-6-9-3(2)8-4/h1,5H	InChI=1S/C4H3N2O3/c5-4-7-2-1-6-9-3(2)8-4/h1,4-5H/t4-/m0/s1
