10
gdb 130618	3.15578	1.53986	1.03489	3.3272	63.55	-0.2938	-0.1263	0.1675	1004.5067	0.053256	-467.541082	-467.534161	-467.533216	-467.57293	24.659	
O	 0.0262076828	-0.0054375825	-0.2199634863	-0.298636
C	-0.0003217406	 1.1921242347	-0.0411104904	 0.279529
C	-1.2222710568	 1.9733479799	 0.1730301953	-0.008486
N	-1.2603418786	 3.2436912707	 0.3637295847	-0.030044
O	-0.0598179118	 3.9334267366	 0.3686541076	-0.199336
N	 1.1478819169	 3.3437811535	 0.184032376	-0.080253
C	 1.1943913163	 2.0610233528	-0.0092450253	 0.139603
C	 2.4948417889	 1.4893579652	-0.1983630376	 0.307695
N	 3.5306905124	 1.0012547295	-0.3538695638	-0.292168
H	-2.1833102394	 1.4663670595	 0.1757665299	 0.182098
89.4048	147.5131	207.3974	375.1658	392.0476	447.5267	452.5133	571.8612	580.0085	609.8247	693.1807	787.6337	807.7419	907.384	953.4664	986.3356	1170.8581	1295.5057	1360.3001	1562.5462	1639.8128	1789.0597	2362.847	3186.963
O=C1C=NON=C1C#N	O=c1cnonc1C#N	
InChI=1S/C4HN3O2/c5-1-3-4(8)2-6-9-7-3/h2H	InChI=1S/C4HN3O2/c5-1-3-4(8)2-6-9-7-3/h2H
