11
gdb 132223	2.09278	1.86887	0.98725	3.0525	55.43	-0.2617	-0.0382	0.2235	1039.9161	0.065875	-533.843571	-533.836807	-533.835863	-533.875173	25.056	
O	-0.1647146484	 1.2602227845	 0.0101964064	-0.371317
C	 0.0370698518	-0.0498077575	 0.0023144632	 0.514442
N	 1.1840611667	-0.5945249337	-0.0066934794	-0.428245
C	 1.279645995	-2.0105532665	-0.0146205755	 0.406272
O	 2.3509977783	-2.5679478918	-0.0232376186	-0.339399
C	-0.0072755432	-2.7257926885	-0.011447207	-0.453596
C	-1.1330216901	-2.0144488111	-0.0017039003	 0.414695
F	-2.3489886194	-2.4908982851	 0.0023211694	-0.023701
O	-1.1769664768	-0.6642370809	 0.0055889739	-0.199575
H	 0.7128137359	 1.6695894616	 0.0076157887	 0.331662
H	-0.02855279	-3.8054371012	-0.0169683508	 0.148762
131.0075	188.9363	210.1754	349.1413	385.5584	498.3969	546.8304	562.6355	617.5861	654.3054	661.4739	731.6476	775.1578	861.6921	915.6465	977.7725	1044.7173	1194.7076	1234.4142	1264.8844	1379.9427	1451.2539	1669.5937	1763.9775	1815.0653	3251.4011	3777.8702
OC1=NC(=O)C=C(F)O1	Oc1nc(=O)cc(F)o1	
InChI=1S/C4H2FNO3/c5-2-1-3(7)6-4(8)9-2/h1H,(H,6,7,8)	InChI=1S/C4H2FNO3/c5-2-1-3(7)6-4(8)9-2/h1H,(H,6,7,8)
