11
gdb 132323	2.02191	1.74914	0.93783	3.2276	57.77	-0.2495	-0.0601	0.1894	1070.2649	0.06404	-541.810654	-541.803841	-541.802897	-541.84226	25.441	
F	 0.068727063	 0.0696090491	 0.0026338012	-0.026398
C	-0.065934259	 1.3727146185	 0.0113007532	 0.454932
C	-1.2735356299	 1.9802249535	 0.0312338963	-0.524076
C	-1.2264587289	 3.3990834594	 0.0378150718	 0.390261
F	-2.3887483741	 4.0327660739	 0.0573118337	-0.053075
C	-0.0692669243	 4.1109894695	 0.0253296445	-0.43431
C	 1.1984175033	 3.444003564	 0.0042253871	 0.460286
O	 2.3076897862	 3.8807000698	-0.0090634575	-0.316833
O	 1.0907348448	 1.98446172	-0.001754914	-0.243881
H	-2.198215097	 1.4255086772	 0.0412737569	 0.14831
H	-0.0671570741	 5.1913829551	 0.0308312766	 0.144784
152.0332	198.7857	220.6869	334.5576	362.7749	448.4903	517.1169	574.3755	626.0649	649.622	686.9632	728.0571	785.8525	802.5495	837.7993	997.7788	1031.6449	1118.3693	1183.7711	1263.8113	1403.3339	1484.2632	1599.6501	1701.7671	1892.0558	3244.2832	3263.9836
FC1=CC(F)=CC(=O)O1	Fc1cc(F)cc(=O)o1	
InChI=1S/C5H2F2O2/c6-3-1-4(7)9-5(8)2-3/h1-2H	InChI=1S/C5H2F2O2/c6-3-1-4(7)9-5(8)2-3/h1-2H
