11
gdb 131977	2.93653	1.68306	1.07018	3.9749	61.39	-0.263	-0.1119	0.1511	983.2948	0.065	-521.884172	-521.876899	-521.875955	-521.916199	26.116	
N	 0.0412059746	 1.3878483825	 0.1096909523	-0.59624
C	-0.0340761086	 0.0483487948	 0.0362936776	 0.318587
C	-1.114047355	-0.7985890282	 0.0169008941	 0.422733
O	-0.6721299623	-2.0686472497	-0.0198022704	-0.179136
N	 0.714767537	-1.9884401933	-0.0292258844	 0.028972
N	 1.0754447283	-0.7725261232	 0.00362783	-0.181658
N	-2.4913905021	-0.5012992971	 0.0104182425	 0.364021
O	-2.7625497527	 0.7094991155	 0.0277666177	-0.412456
O	-3.2988517603	-1.4172551654	-0.0137090256	-0.345274
H	 0.9230400489	 1.8309384545	-0.0846560369	 0.285246
H	-0.8177011577	 1.9003316496	-0.0154015368	 0.295205
100.7547	172.3006	198.8064	293.0962	328.1233	346.9615	450.1295	509.4462	556.9395	629.0297	728.8751	734.6589	778.8428	818.0517	847.1844	999.9136	1054.4235	1226.6887	1282.6053	1341.4948	1426.5271	1475.5694	1571.8812	1618.9323	1717.1388	3594.1214	3729.4225
NC1=C(ON=N1)N(=O)=O	Nc1c(onn1)N(=O)=O	
InChI=1S/C2H2N4O3/c3-1-2(6(7)8)9-5-4-1/h3H2	InChI=1S/C2H2N4O3/c3-1-2(6(7)8)9-5-4-1/h3H2
