10
gdb 130552	3.81798	1.25932	0.94697	3.1291	61.53	-0.303	-0.1146	0.1884	1091.6504	0.051695	-467.509432	-467.502043	-467.501099	-467.542251	25.496	
O	-0.0413918986	-0.0365725321	 0.0034320837	-0.259769
C	-0.0243714069	 1.172612651	 0.0064664718	 0.168786
C	 1.1885282606	 1.9553985502	 0.0003479752	 0.303337
C	 2.2127192643	 2.5859366661	-0.0049345627	-0.40025
C	-1.2969509052	 1.9521984346	 0.0172077086	 0.346028
N	-1.3870526112	 3.2545518817	 0.0212402025	-0.140268
O	-2.6935496799	 3.5176687159	 0.0309695151	-0.133297
N	-3.4027230833	 2.2801719492	 0.0322601265	 0.051766
N	-2.5533037763	 1.3670351604	 0.024202077	-0.166831
H	 3.1187123566	 3.1434232132	-0.0098033677	 0.230499
54.3378	117.8966	181.8024	238.7865	281.8292	439.2495	492.4287	550.565	667.436	677.4043	683.6466	690.5676	728.2438	825.0507	980.972	1030.2317	1058.8601	1131.0786	1326.8828	1502.8633	1554.4611	1763.3592	2223.6563	3490.0014
O=C(C#C)C1=NON=N1	O=C(C#C)c1nonn1	
InChI=1S/C4HN3O2/c1-2-3(8)4-5-7-9-6-4/h1H	InChI=1S/C4HN3O2/c1-2-3(8)4-5-7-9-6-4/h1H
