8
gdb 21768	5.97654	2.46725	1.74633	2.184	46.36	-0.327	-0.1152	0.2119	619.5816	0.037876	-441.632177	-441.627357	-441.626412	-441.661154	17.478	
O	-0.1468473955	 1.3046236601	 0.010615474	-0.22646
N	 1.2395184035	 1.7868736704	 0.0000777491	 0.047021
N	 2.0219462811	 0.8122008524	-0.0132454642	-0.015706
N	 1.2793357004	-0.3119431367	-0.0120535992	 0.095304
N	 1.4374760487	-1.6638572485	-0.0206185864	-0.120636
N	 0.2185064836	-2.1018949842	-0.0118165397	-0.057403
N	-0.7458774653	-1.1110809525	 0.0029139782	-0.328275
C	-0.0331343165	-0.015681991	 0.0022061082	 0.606155
221.6198	359.6158	448.7028	616.6379	640.5647	686.0177	710.8846	765.8159	811.5172	942.7948	993.1014	1091.8504	1176.2137	1295.3284	1350.1973	1429.8631	1485.9657	1598.8457
O1N=NN2N=NN=C12	o1nnn2nnnc12	
InChI=1S/CN6O/c2-1-7(4-3-2)5-6-8-1	InChI=1S/CN6O/c2-1-7(4-3-2)5-6-8-1
