10
gdb 21913	3.79151	1.9281	1.27813	2.5662	55.32	-0.2871	-0.0532	0.2339	832.1509	0.061627	-413.464232	-413.458025	-413.45708	-413.49479	22.488	
O	 0.1272670603	 1.3206058395	 0.1575223103	-0.397648
C	 0.0812660541	-0.0070918999	 0.0673439374	 0.399134
N	 0.0802290321	-0.6480258547	-1.07358423	-0.234788
O	 0.0246239207	-2.0064046058	-0.7286080296	-0.156728
C	-0.0048915223	-2.1243806072	 0.5935508382	 0.024752
C	 0.0270762686	-0.896934607	 1.1911595829	-0.032032
C	 0.0115555565	-0.5769175471	 2.5668459126	 0.219646
N	-0.0009090031	-0.3104946707	 3.6929883311	-0.333463
H	 0.157937593	 1.6875254174	-0.7370856366	 0.324263
H	-0.04849197	-3.1259728644	 0.9927750436	 0.186864
141.9074	172.2944	317.9443	384.9821	448.1336	543.0786	547.708	593.173	603.0252	745.2133	748.3456	874.7898	913.7683	939.4807	1178.3712	1217.1371	1256.5066	1313.6305	1477.9805	1575.1306	1652.6508	2359.3088	3270.451	3775.9968
OC1=NOC=C1C#N	Oc1nocc1C#N	
InChI=1S/C4H2N2O2/c5-1-3-2-8-6-4(3)7/h2H,(H,6,7)	InChI=1S/C4H2N2O2/c5-1-3-2-8-6-4(3)7/h2H,(H,6,7)
