11
gdb 16786	3.74501	2.26902	1.53734	2.1739	52.92	-0.29	-0.0516	0.2384	749.5702	0.07274	-434.551552	-434.54565	-434.544706	-434.58174	21.933	
N	-0.0757440787	 1.2635598744	-0.0584115918	-0.518602
C	-0.0456289206	 0.0132435125	 0.0308492527	 0.448233
O	 1.1064458798	-0.7504786465	 0.1970695009	-0.230226
C	 0.8495937933	-2.102190769	 0.0016395804	 0.466449
O	 1.7173887712	-2.909563899	-0.0887220743	-0.305373
C	-0.6469719795	-2.2729949522	-0.0800627479	-0.126226
O	-1.2714377016	-1.7642223131	 1.103928359	-0.224869
C	-1.2109948427	-0.9159666069	-0.0489957304	-0.049623
H	 0.8595979094	 1.6679279628	 0.0139785619	 0.247399
H	-1.085643313	-3.1436140419	-0.552006393	 0.146441
H	-2.1471372677	-0.6089331909	-0.4977448574	 0.146396
147.3896	194.9889	338.6508	375.7574	500.189	627.6123	629.7381	722.8607	764.993	858.9863	863.6983	894.9774	911.2357	930.184	1009.9404	1042.8613	1095.8363	1147.727	1228.2497	1290.3438	1332.5023	1390.3577	1803.6433	1923.7624	3203.6769	3216.4915	3482.63
N=C1OC(=O)C2OC12	[NH][C]1OC(=O)[C@H]2O[C@@H]12	
InChI=1S/C4H3NO3/c5-3-1-2(7-1)4(6)8-3/h1-2,5H	InChI=1S/C4H3NO3/c5-3-1-2(7-1)4(6)8-3/h1-2,5H/t1-,2+/m1/s1
