8
gdb 14564	0	0.56495	0.56495	0.0006	95.14	-0.3024	-0.1281	0.1744	1712.2984	0.037484	-337.959005	-337.951981	-337.951037	-337.98329	23.324	
N	 0.0871074894	-6.2768885493	-0.032493468	-0.304408
C	 0.0711275515	-5.1137528555	-0.0261250526	 0.078352
C	 0.0525342088	-3.7552163012	-0.0186749511	 0.43333
C	 0.0360166993	-2.5388252685	-0.0119835707	-0.207274
C	 0.0177779288	-1.193911344	-0.0045786311	-0.207273
C	 0.0013190793	 0.0224804809	 0.0021258345	 0.43333
C	-0.0169207904	 1.3810213128	 0.0096207384	 0.078352
N	-0.0325296666	 2.5441627248	 0.0160279504	-0.304409
64.0767	169.3097	169.6871	299.0797	301.1043	477.6258	510.6936	511.0146	578.9702	579.5161	670.9179	671.0257	928.5769	1338.4142	2190.3734	2293.2708	2330.8124	2369.1153
N#CC#CC#CC#N	N#CC#CC#CC#N	
InChI=1S/C6N2/c7-5-3-1-2-4-6-8	InChI=1S/C6N2/c7-5-3-1-2-4-6-8
