11
gdb 23688	3.88138	2.03261	1.33401	3.6891	58.06	-0.2428	-0.0678	0.1751	807.0827	0.072302	-438.709267	-438.703154	-438.702209	-438.739902	22.581	
F	 0.1120381957	 0.0750538928	 0.0022189707	-0.028059
C	-0.0435776413	 1.3744467486	 0.0108841486	 0.426826
C	-1.2430608076	 1.9909454474	 0.0306480883	-0.38331
C	-1.1692782858	 3.4197021315	 0.036734247	 0.04271
N	-0.0745856834	 4.1130802795	 0.0249349418	-0.267495
C	 1.1333685464	 3.468135661	 0.0046391675	 0.448774
N	 2.2587794202	 4.0297557323	-0.0076332973	-0.505616
O	 1.1077299456	 2.0012143179	-0.0021667602	-0.245346
H	-2.1697430636	 1.4395538859	 0.0408384381	 0.135313
H	-2.0991794571	 3.9864601523	 0.0525654759	 0.138104
H	 3.0155535209	 3.3493532608	-0.0214693305	 0.238099
96.1858	193.05	342.1793	439.5386	498.4444	525.2455	556.7759	699.7629	740.9329	761.2226	783.4638	836.8201	852.6502	941.4221	1002.6343	1027.2089	1083.9897	1181.4256	1317.5829	1420.6927	1429.2224	1581.5356	1710.5809	1776.6071	3145.9943	3261.4459	3530.4556
FC1=CC=NC(=N)O1	F[C@@H]1C=CN=C([NH])O1	
InChI=1S/C4H3FN2O/c5-3-1-2-7-4(6)8-3/h1-2,6H	InChI=1S/C4H4FN2O/c5-3-1-2-7-4(6)8-3/h1-3,6H/t3-/m0/s1
