11
gdb 9993	2.79648	1.47279	1.00664	4.237	59.57	-0.305	-0.0362	0.2688	1060.6821	0.068966	-397.373103	-397.365046	-397.364102	-397.406942	26.847	
O	 0.0170612107	 0.0117164359	 0.056214869	-0.243818
C	 0.0508398489	 1.1973719932	 0.1129162354	 0.185135
O	 1.110146418	 1.9123694934	-0.357180106	-0.167767
C	 1.0535971074	 3.3382264861	-0.2221381681	-0.211984
C	 2.1520608109	 3.8202067498	 0.6081867927	 0.343402
C	 3.0405957581	 4.2237176639	 1.305018289	-0.40359
C	 1.0837842294	 3.9420890685	-1.568334211	 0.314383
N	 1.0835624529	 4.429676588	-2.6142653236	-0.30148
H	-0.7440621831	 1.8391225146	 0.5396486829	 0.096149
H	 0.0964835229	 3.623024424	 0.2417316583	 0.161815
H	 3.8342397338	 4.5778027627	 1.9174220514	 0.227756
30.3849	125.6763	143.8736	161.4628	252.0503	333.2805	359.203	480.203	512.0063	576.4842	665.6555	701.4343	711.9747	937.7991	1021.7292	1032.5808	1040.75	1142.5454	1313.3989	1333.0267	1433.6948	1889.6515	2255.234	2373.7139	2954.6372	2993.0419	3497.2508
O=COC(C#C)C#N	O=CO[C@@H](C#C)C#N	
InChI=1S/C5H3NO2/c1-2-5(3-6)8-4-7/h1,4-5H	InChI=1S/C5H3NO2/c1-2-5(3-6)8-4-7/h1,4-5H/t5-/m0/s1
