11
gdb 128869	9.91092	0.67689	0.63361	5.0359	81.62	-0.2726	-0.0747	0.1979	1577.5874	0.068779	-410.578662	-410.571603	-410.570659	-410.611047	24.704	
N	 0.0554352568	-3.7100138219	-0.018591168	-0.32886
C	 0.0302125374	-2.5480662819	-0.0118073878	 0.170159
C	 0.0041107856	-1.1851990037	-0.0038945348	 0.241361
C	-0.0187443039	 0.0244496557	 0.003128065	-0.014536
C	-0.0072097993	 1.4323199005	 0.0107717825	 0.157801
N	-1.1321369474	 2.1718297671	 0.0293117992	-0.254612
N	-0.6704321884	 3.4050549239	 0.0301719329	-0.097172
N	 0.6490676782	 3.562223992	 0.0140738805	-0.157512
C	 1.0997617295	 2.3131769135	 0.0013977251	-0.172725
H	-1.2945991476	 4.1974308335	 0.0425579903	 0.306576
H	 2.1538144491	 2.0903837314	-0.0134004749	 0.14952
78.3388	87.6463	234.3361	234.9081	434.6476	482.0389	507.6414	580.9811	590.7611	598.1815	717.2224	740.698	894.4167	951.7355	994.5272	1062.3932	1161.1107	1229.3152	1246.7682	1350.8199	1389.3949	1479.6411	1548.3084	2266.9524	2388.422	3284.9879	3654.1604
N#CC#CC1=NNN=C1	N#CC#Cc1n[nH]nc1	
InChI=1S/C5H2N4/c6-3-1-2-5-4-7-9-8-5/h4H,(H,7,8,9)	InChI=1S/C5H2N4/c6-3-1-2-5-4-7-9-8-5/h4H,(H,7,8,9)
