11
gdb 129268	5.81475	1.09808	0.92365	3.3562	69.52	-0.2881	-0.1275	0.1606	1130.9789	0.066069	-447.695178	-447.68813	-447.687185	-447.727261	25.313	
N	-0.0324645589	 1.1864714715	 0.551730593	-0.50123
C	-0.0296870427	 0.0435136898	 0.0156117651	 0.408079
O	 1.135227258	-0.5590490321	-0.441959072	-0.267543
N	 1.122186379	-1.8097637825	-1.0262895558	-0.085748
C	-0.0311649636	-2.3842651079	-1.1225221673	 0.275392
N	-1.2746146862	-1.9012268419	-0.708720578	-0.257747
C	-1.2506618762	-0.739656282	-0.1678519162	-0.006863
C	-0.0229757797	-3.6859941422	-1.7323300037	 0.312389
N	-0.039909871	-4.7335870969	-2.2195584078	-0.303665
H	 0.9045629048	 1.5905023743	 0.6001904738	 0.250674
H	-2.1754492035	-0.2876382401	 0.1831081688	 0.176262
57.8806	162.7683	211.4874	326.8522	401.7326	445.1195	455.6477	549.8878	577.1704	636.4341	731.7676	781.0123	796.4187	886.8461	931.9481	993.9288	1017.02	1083.6173	1274.9349	1313.4036	1357.9477	1566.4753	1667.7329	1745.1816	2366.7452	3176.7153	3484.137
N=C1ON=C(N=C1)C#N	[NH]C1=C[N]C(=NO1)C#N	
InChI=1S/C4H2N4O/c5-1-4-7-2-3(6)9-8-4/h2,6H	InChI=1S/C4H2N4O/c5-1-4-7-2-3(6)9-8-4/h2,6H
