11
gdb 130309	3.598	1.83126	1.21461	5.6933	57.57	-0.2726	-0.0515	0.2211	889.7094	0.067783	-480.974518	-480.968191	-480.967246	-481.0052	23.845	
N	 0.0283595366	 1.3538469519	 0.1520732916	-0.591201
C	 0.0119294146	 0.0032956504	 0.0362928507	 0.493462
N	-1.0515850251	-0.7590498164	-0.0121589737	-0.206724
O	-0.5708529302	-2.1214793283	-0.0395760941	-0.239278
C	 0.7549044082	-2.0552813746	-0.0279179041	 0.587816
N	 1.7907841313	-2.8591490264	-0.0519264033	-0.350087
N	 2.8556934684	-1.9948872004	-0.0179654822	-0.0742
N	 2.5190634518	-0.743673341	 0.0265166379	-0.160373
N	 1.1516296522	-0.7730065997	 0.0216428163	-0.046224
H	 0.8452131081	 1.8250421788	-0.2065930325	 0.294915
H	-0.8508301358	 1.8150767756	-0.0278353665	 0.291895
174.8589	248.3196	261.9347	330.3474	410.8813	512.9345	547.6602	667.0014	680.2208	689.1838	690.001	776.4336	811.7356	901.065	984.6193	1090.5579	1126.1473	1176.5158	1231.5099	1315.3927	1451.1004	1498.4781	1581.3939	1626.0197	1690.0829	3583.8601	3695.1408
NC1=NOC2=NN=NN12	Nc1noc2nnnn12	
InChI=1S/C2H2N6O/c3-1-5-9-2-4-6-7-8(1)2/h(H2,3,5)	InChI=1S/C2H2N6O/c3-1-5-9-2-4-6-7-8(1)2/h(H2,3,5)
