11
gdb 23636	4.00691	1.85257	1.26685	3.829	56.25	-0.247	-0.0603	0.1867	834.715	0.07222	-442.560089	-442.554095	-442.553151	-442.590405	22.518	
F	 0.0362440432	 0.0238740187	 0.0024564549	-0.057622
C	-0.0184205535	 1.3487772882	 0.010709563	 0.357403
C	-1.212743009	 1.9856234539	 0.0302888841	-0.422132
C	-1.2751920044	 3.4274393472	 0.0396523827	 0.450404
O	-2.2452995796	 4.1297935172	 0.0555593154	-0.335532
O	-0.0067189791	 4.0783729782	 0.0258264867	-0.220501
C	 1.1426479592	 3.4013409912	 0.0065617096	 0.115715
C	 1.2197254898	 2.054291858	-0.0018672098	-0.320007
H	-2.1491590271	 1.4455337797	 0.0395375744	 0.14165
H	 2.0043677693	 4.058822868	-0.001460948	 0.155355
H	 2.1666699113	 1.5351114097	-0.0174984129	 0.135268
152.6739	215.5076	364.7893	419.9503	459.0921	518.1111	578.9245	689.6307	724.2562	731.8126	788.0124	833.5488	865.322	950.8114	992.1248	1081.5544	1137.9774	1232.3906	1295.0786	1338.1993	1487.4634	1595.7629	1690.8136	1861.3089	3208.9532	3238.0332	3248.9013
FC1=CC(=O)OC=C1	Fc1cc(=O)occ1	
InChI=1S/C5H3FO2/c6-4-1-2-8-5(7)3-4/h1-3H	InChI=1S/C5H3FO2/c6-4-1-2-8-5(7)3-4/h1-3H
