11
gdb 130682	5.4701	1.35111	1.08349	1.1092	58.66	-0.2349	-0.027	0.2079	973.2858	0.067634	-488.688341	-488.682108	-488.681164	-488.719096	23.485	
O	-0.0069633719	-0.0169279547	 0.0034893966	-0.355852
C	-0.0290133205	 1.1742458541	 0.0093014763	 0.466622
N	-1.1527682809	 2.023877717	 0.0298515196	-0.517589
C	-0.6879362145	 3.31217682	 0.0303227231	 0.4909
C	 0.6608706709	 3.2865454218	 0.0116127825	 0.176454
O	 1.1084091854	 1.9849526499	-0.0014963114	-0.247323
C	 1.0312306371	 4.6413994444	 0.0138080013	-0.093523
N	-0.0427633946	 5.4160455736	 0.0326361524	-0.151335
O	-1.1824415209	 4.5330073221	 0.0437812031	-0.226397
H	-2.0940264193	 1.6705243057	 0.0414626516	 0.298763
H	 2.0025343194	 5.1124965661	 0.0029975548	 0.159281
126.6015	223.4176	350.4897	359.1486	402.4277	580.9155	589.5313	598.1862	724.0371	757.4235	763.3181	787.97	852.107	894.4556	895.1348	973.2013	1050.1047	1188.6949	1272.3658	1280.9578	1412.1151	1484.1715	1580.1963	1671.7256	1920.2393	3260.8737	3687.9102
O=C1NC2=C(O1)C=NO2	O=c1[nH]c2c(o1)cno2	
InChI=1S/C4H2N2O3/c7-4-6-3-2(8-4)1-5-9-3/h1H,(H,6,7)	InChI=1S/C4H2N2O3/c7-4-6-3-2(8-4)1-5-9-3/h1H,(H,6,7)
