11
gdb 129138	4.95009	1.20605	1.01407	2.9922	66.98	-0.272	-0.1134	0.1586	1061.7612	0.064704	-480.954091	-480.94707	-480.946126	-480.986014	25.122	
N	-0.0341106528	 1.2328832554	 0.0892946151	-0.435116
C	-0.0109491637	-0.0158318562	-0.0977212665	 0.440888
N	 1.1789960818	-0.7703089326	-0.3002053162	-0.18899
N	 1.1824478628	-1.9505065526	 0.1192234483	-0.025492
N	 0.0034138903	-2.4296276549	 0.6375485213	-0.040619
C	 0.0603884156	-3.758065353	 1.1547827695	 0.217277
O	-0.8963330056	-4.3594866181	 1.5298627828	-0.23151
N	-1.2228315504	-1.9255772654	 0.2251935768	-0.000724
N	-1.2285552027	-0.7427882122	-0.1765249785	-0.132372
H	 0.9215408017	 1.5987744247	 0.0913671794	 0.253294
H	 1.107573663	-4.0987133451	 1.1745239181	 0.143365
79.417	163.322	219.0554	258.6316	397.2931	425.4002	480.4617	527.4673	638.4548	669.9662	746.1742	793.2527	820.7277	926.8915	958.1934	991.4364	1027.9678	1074.5332	1269.8429	1303.0956	1402.3566	1523.1171	1601.5738	1741.3155	1866.973	3030.9232	3464.1414
N=C1N=NN(C=O)N=N1	[NH][C@@H]1N=NN(C=O)N=N1	
InChI=1S/C2H2N6O/c3-2-4-6-8(1-9)7-5-2/h1,3H	InChI=1S/C2H3N6O/c3-2-4-6-8(1-9)7-5-2/h1-3H
