9
gdb 132002	4.76239	1.19324	0.95417	0.093	50.06	-0.3315	-0.1399	0.1916	1061.2827	0.04071	-561.657914	-561.651207	-561.650263	-561.690197	22.941	
O	 0.1180478066	 0.0356329521	 0.0020256594	-0.316957
C	 0.016974555	 1.2077882978	 0.0091064551	 0.543521
O	-1.1332117972	 1.9516558687	 0.0296742441	-0.215038
N	-0.8136104407	 3.3207390281	 0.0317671972	-0.125271
C	 0.4630236332	 3.3181746644	 0.0131393186	 0.562673
O	 1.0690780886	 2.1302067991	-0.0015695493	-0.198315
N	 1.2844011032	 4.5334294823	 0.0071797985	 0.368743
O	 0.6772362478	 5.585263624	 0.0213936147	-0.307138
O	 2.4877977034	 4.3528954936	-0.0108701483	-0.312216
51.5235	147.7291	197.0035	306.0173	395.4953	460.8153	597.4903	604.5417	749.7397	752.7581	790.7321	832.1766	870.9681	940.2073	981.5464	1120.9379	1337.4365	1390.4391	1669.8616	1685.4945	1986.7582
O=C1ON=C(O1)N(=O)=O	O=c1onc(o1)N(=O)=O	
InChI=1S/C2N2O5/c5-2-8-1(3-9-2)4(6)7	InChI=1S/C2N2O5/c5-2-8-1(3-9-2)4(6)7
