11
gdb 130538	3.96298	1.36606	1.01588	3.7035	74.47	-0.2521	-0.1234	0.1287	1031.6933	0.06579	-447.725422	-447.718295	-447.717351	-447.757411	25.292	
O	-0.6105919978	 1.075005745	 0.01392465	-0.302211
N	 2.1886282297	 2.626174725	-0.0050575326	-0.154285
N	 2.2275866103	 1.5017145462	-0.0113286455	 0.281421
C	 2.3279375056	 0.1844512889	-0.0192655761	-0.149392
C	 1.1768091396	-0.620724386	-0.0123615083	 0.204237
N	 1.1518764084	-1.922710755	-0.019000118	-0.344621
C	-0.2368705648	-2.203821015	-0.0070224804	 0.074234
N	-1.0950199737	-1.2308022833	 0.0064378053	-0.299861
C	-0.2805017062	-0.0806295533	 0.0046197188	 0.362968
H	 3.3382472094	-0.2013051089	-0.0310932065	 0.183057
H	-0.5442361103	-3.2447724735	-0.0095433787	 0.144454
96.7882	128.6911	216.8558	267.6401	319.6023	485.2389	489.4248	527.8861	545.8409	658.4174	723.2512	749.3006	825.9128	865.0567	977.5554	1016.5708	1120.693	1159.0357	1305.3362	1335.3172	1408.2073	1508.4611	1631.5542	1840.8701	2246.3019	3204.1502	3224.5407
O1N=NC=C2N=CN=C12	O=C1C(=NC=N1)[CH][N][N]	
InChI=1S/C4H2N4O/c1-3-4(6-2-5-3)9-8-7-1/h1-2H	InChI=1S/C4H2N4O/c5-8-1-3-4(9)7-2-6-3/h1-2H
