11
gdb 130570	3.81334	1.2409	0.93624	4.2921	64.22	-0.3065	-0.1066	0.1998	1107.9338	0.067944	-447.743852	-447.736749	-447.735804	-447.776284	24.516	
O	 0.0376750802	-0.0375623906	 0.002927733	-0.277422
C	-0.0427623359	 1.1694387571	 0.0066988711	 0.209008
C	 1.1765626291	 2.0018224237	 0.0007583873	 0.260668
N	 2.1579453798	 2.612057075	-0.0041661273	-0.314884
C	-1.3151525086	 1.8926522564	 0.0169314437	 0.249706
N	-1.3930949846	 3.231611048	 0.0209812518	-0.262751
N	-2.686849313	 3.4500717659	 0.0298996533	-0.056025
N	-3.4837649457	 2.3797326525	 0.0325069453	-0.182987
C	-2.6248828775	 1.367464979	 0.0241595394	-0.102808
H	-3.064216537	 4.3863038994	 0.0347538578	 0.312123
H	-2.9527520568	 0.3413968037	 0.0236524746	 0.165371
72.236	119.8506	188.1348	238.8386	317.0725	460.137	486.6173	604.2896	673.9841	679.1537	728.9905	806.8832	920.0457	972.1679	992.0664	1063.9163	1147.0636	1229.1232	1259.0972	1377.2107	1399.7076	1486.1021	1549.8021	1766.1823	2347.1571	3291.0969	3646.9442
O=C(C#N)C1=NNN=C1	O=C(C#N)c1n[nH]nc1	
InChI=1S/C4H2N4O/c5-1-4(9)3-2-6-8-7-3/h2H,(H,6,7,8)	InChI=1S/C4H2N4O/c5-1-4(9)3-2-6-8-7-3/h2H,(H,6,7,8)
