11
gdb 21388	5.75836	2.23207	1.60856	4.5115	57.08	-0.25	-0.0243	0.2257	696.51	0.07628	-389.734638	-389.729179	-389.728235	-389.763987	20.81	
N	 0.0040148268	 1.3483668166	 0.009336228	-0.356248
N	 1.293673489	 1.8356278602	-0.000026805	-0.209821
C	 2.0984530639	 0.7853011491	-0.0137824529	-0.1027
C	 1.3419235321	-0.4182988883	-0.0128231872	 0.234039
C	 0.0182412129	 0.0009325688	 0.002467345	 0.489167
N	-0.714988947	-1.1278186378	 0.0030155263	-0.363617
N	 0.1503191598	-2.218717169	-0.0114248203	-0.111222
N	 1.3657443858	-1.7871894083	-0.0208659279	-0.279331
H	-0.7595205753	 1.9998884299	 0.022270007	 0.281838
H	 3.1670121364	 0.9345080909	-0.0234687448	 0.134895
H	-1.7065244844	-1.2928172021	 0.0121735218	 0.283001
243.9674	299.9465	345.0949	431.5723	478.3486	657.088	684.0198	704.652	777.8331	777.9417	885.0891	904.24	974.2289	1015.3374	1050.0709	1228.4439	1250.9021	1266.0927	1356.3633	1388.5424	1437.6248	1484.4171	1538.2998	1654.7114	3262.4634	3686.6902	3698.9393
N1N=CC2=C1NN=N2	[nH]1ncc2c1[nH]nn2	
InChI=1S/C3H3N5/c1-2-3(6-4-1)7-8-5-2/h1H,(H2,4,5,6,7,8)	InChI=1S/C3H3N5/c1-2-3(6-4-1)7-8-5-2/h1H,(H2,4,5,6,7,8)
