11
gdb 24999	5.01618	1.38905	1.11078	4.0546	52.77	-0.2166	-0.0214	0.1952	965.935	0.066118	-529.619161	-529.612747	-529.611802	-529.65015	23.661	
O	 0.0014199231	 0.067313317	 0.0186554251	-0.323969
C	-0.0147518252	 1.2470913312	 0.0176081234	 0.49437
O	-1.1616951131	 2.0415731566	 0.0780611	-0.236452
C	-0.702348654	 3.3213515989	 0.1918433452	 0.243409
C	 0.6203537709	 3.3394671767	 0.1735438802	 0.2434
O	 1.1100641619	 4.4909495464	-0.3648154236	-0.24811
C	-0.0748872273	 5.3263569347	-0.2909153002	 0.016647
O	-1.2381133488	 4.4587926292	-0.3323136436	-0.24811
O	 1.1112426858	 2.0727018532	 0.0466040329	-0.236452
H	-0.06860296	 5.8451410372	 0.6764168727	 0.134993
H	-0.0959697231	 6.010005289	-1.137716272	 0.160274
126.5088	234.7666	275.3717	341.8339	345.7349	463.8117	593.4809	595.1193	734.5784	740.6119	762.6953	854.964	864.1485	915.0474	961.9385	1045.8428	1123.4904	1174.6629	1254.1163	1348.5217	1380.5033	1456.9424	1513.7175	1763.4015	1966.4591	3023.6827	3160.4599
O=C1OC2=C(OCO2)O1	O=C1O[C]2[C](OCO2)O1	
InChI=1S/C4H2O5/c5-4-8-2-3(9-4)7-1-6-2/h1H2	InChI=1S/C4H2O5/c5-4-8-2-3(9-4)7-1-6-2/h1H2
