9
gdb 23831	4.02515	2.01835	1.34428	4.1882	47.91	-0.3	-0.1167	0.1833	772.233	0.047833	-474.61587	-474.61	-474.609056	-474.646444	20.824	
F	 0.0413785505	 0.0783276662	 0.0026673497	-0.030668
C	-0.0218564835	 1.3916889542	 0.0110595821	 0.352611
N	-1.1604246899	 1.956780863	 0.0291658645	-0.362109
C	-1.182453546	 3.3464394549	 0.0373248158	 0.494268
O	-2.1548991218	 4.0282933099	 0.0539104018	-0.29667
O	 0.0708726303	 4.0233380186	 0.0246095833	-0.2447
N	 1.2696375196	 3.3765391098	 0.0052167312	 0.014444
C	 1.2393030906	 2.0895769237	-0.0016247707	-0.10104
H	 2.1899667002	 1.5708206696	-0.0170737278	 0.173862
89.1261	206.524	378.3006	418.1931	505.9006	560.5949	575.3238	721.8284	735.4247	779.9104	832.9213	893.9314	964.9947	1040.2974	1164.2251	1276.4749	1407.7934	1608.9471	1711.0645	1904.9103	3219.7077
FC1=NC(=O)ON=C1	Fc1nc(=O)onc1	
InChI=1S/C3HFN2O2/c4-2-1-5-8-3(7)6-2/h1H	InChI=1S/C3HFN2O2/c4-2-1-5-8-3(7)6-2/h1H
