9
gdb 130670	1.53481	0.98623	0.87604	0.3931	51.11	-0.2921	-0.119	0.1732	1373.7252	0.030065	-520.788601	-520.775326	-520.774382	-520.836528	33.637	
O	-0.0936351953	 0.7306214807	 1.2628973557	-0.233174
C	-0.942144323	 1.1518506417	 0.5914578516	 0.619798
N	-1.8916850431	 1.5305510027	-0.0980563944	-0.40528
N	-1.8385957822	 2.8028761153	-0.8991649641	 0.14114
O	-0.8522774211	 3.4286153422	-0.7875451028	-0.117897
N	 1.3219409609	 3.7058502221	 1.7046552723	-0.000309
N	 2.3745728773	 3.750847523	 1.3927702284	-0.002565
C	 1.6938018582	 1.5258195421	-1.5302117893	-0.045126
O	 2.7745884382	 1.8559408702	-1.5348232574	 0.043415
14.1395	19.8876	27.3916	28.869	39.2237	45.412	55.5899	69.177	72.8584	87.3475	123.0496	145.8695	382.3276	642.5741	725.0129	806.0848	1300.3784	1709.4004	2211.9367	2259.9515	2430.6473	14.1349	19.8854	27.3907	28.8688	39.2235	45.4117	55.59	69.1771	72.8564	87.3465	123.0476	145.8697	382.3274	642.5743	725.0129	806.0848	1300.3785	1709.4	2211.9362	2259.9515	2430.6473
O=C1N=NON=NC1=O	O=C=NN=O.N#N.[C]=O	
InChI=1S/C2N4O3/c7-1-2(8)4-6-9-5-3-1	InChI=1S/CN2O2.CO.N2/c4-1-2-3-5;2*1-2
