10
gdb 132227	2.01933	1.99945	1.00467	2.8807	52.73	-0.2821	-0.046	0.2361	1004.2987	0.053918	-554.019864	-554.01336	-554.012416	-554.05146	23.492	
F	 0.1169660032	 0.1168466704	 0.0378880286	-0.020149
C	-0.0683280719	 1.4021216832	-0.0042892638	 0.41691
N	-1.1799155898	 1.9505892826	 0.157073411	-0.344544
C	-1.2273854398	 3.36242254	 0.0830975087	 0.390799
N	-2.3342973076	 3.9538887113	 0.2412753742	-0.481495
N	-0.0050157583	 4.0515321254	-0.1696975595	-0.390457
C	 1.028064583	 3.3580336681	-0.3090650363	 0.417347
F	 2.2053358328	 3.8564785011	-0.5430739522	-0.019993
O	 1.1358872158	 2.0016002838	-0.2488751199	-0.208775
H	-2.1885882775	 4.960598074	 0.1573302892	 0.240356
103.1958	194.0441	225.9918	365.3921	390.0613	542.4466	548.1539	638.5282	658.2409	702.044	709.0878	779.1499	912.5028	925.8884	977.8617	1058.8669	1138.9231	1249.6223	1340.7628	1393.5353	1735.0124	1740.8918	1842.0632	3494.8807
FC1=NC(=N)N=C(F)O1	FC1=N[C@@H]([NH])N=C(F)O1	
InChI=1S/C3HF2N3O/c4-1-7-3(6)8-2(5)9-1/h6H	InChI=1S/C3H2F2N3O/c4-1-7-3(6)8-2(5)9-1/h3,6H
