11
gdb 21563	7.65776	1.30883	1.11868	6.7373	60.71	-0.245	-0.0476	0.1974	954.5444	0.073293	-393.58625	-393.579575	-393.578631	-393.617036	24.414	
N	 0.0379748421	 1.3750503	 0.171866466	-0.598241
C	-0.0812276594	 0.019327173	 0.0651330543	 0.505452
C	-1.1494571476	-0.8371122826	 0.0455112392	-0.436367
C	-0.5236907502	-2.1095571182	-0.0053127522	 0.309407
N	 0.7948100969	-2.0435593762	-0.0179465187	-0.203326
O	 1.0676494332	-0.6742678513	 0.0262100145	-0.198315
C	-1.1706755684	-3.3802458101	-0.043397641	 0.253591
N	-1.733817907	-4.389356494	-0.0742544781	-0.322183
H	 0.9247661923	 1.7542504292	-0.1263120698	 0.277528
H	-0.7592668171	 1.9122062827	-0.1306872794	 0.275977
H	-2.2004193849	-0.6108543524	 0.0703038752	 0.136478
139.5966	158.4454	286.4784	309.2924	386.8248	509.1164	517.9264	540.9343	574.3397	689.6084	722.8552	749.2492	769.1977	944.2874	1021.6051	1030.8067	1077.3852	1183.7452	1356.5316	1467.3577	1504.9857	1616.854	1674.228	2366.7282	3296.4821	3584.0762	3692.8663
NC1=CC(=NO1)C#N	Nc1cc(no1)C#N	
InChI=1S/C4H3N3O/c5-2-3-1-4(6)8-7-3/h1H,6H2	InChI=1S/C4H3N3O/c5-2-3-1-4(6)8-7-3/h1H,6H2
