11
gdb 8985	7.26281	0.9363	0.83368	0.2528	54.1	-0.2883	-0.1061	0.1822	1222.7224	0.069586	-434.562648	-434.554664	-434.55372	-434.596708	25.642	
O	-0.144964992	 0.1012313144	 0.0016310409	-0.189559
C	 0.0046391959	 1.2881090515	 0.0063489026	 0.086443
C	 1.4084071049	 1.9157832781	-0.0018334842	 0.366469
O	 2.4455003713	 1.317489324	-0.0131187889	-0.313999
O	 1.2870525314	 3.2623877149	 0.0053736895	-0.227199
C	 2.5367299766	 3.9681974153	-0.0013570688	-0.207488
C	 2.2501513818	 5.3996491928	 0.0092784506	 0.272527
N	 2.0584935559	 6.5377074145	 0.0174239735	-0.278635
H	-0.8279901909	 2.0174983597	 0.016497289	 0.125289
H	 3.1299671856	 3.6895413545	 0.8755225715	 0.183092
H	 3.1147080794	 3.6996809902	-0.8914993357	 0.18306
31.1314	85.8634	112.0655	192.5423	242.4062	296.5961	374.2698	420.6505	555.2574	597.3791	766.2449	904.4904	987.8301	1013.31	1019.1713	1028.7687	1202.4308	1251.1599	1382.7849	1409.098	1479.4709	1841.7216	1852.6166	2379.1676	2957.5185	3059.6311	3101.0773
O=CC(=O)OCC#N	O=CC(=O)OCC#N	
InChI=1S/C4H3NO3/c5-1-2-8-4(7)3-6/h3H,2H2	InChI=1S/C4H3NO3/c5-1-2-8-4(7)3-6/h3H,2H2
