11
gdb 133462	3.58349	1.26876	1.12081	2.9488	49.26	-0.2716	-0.0306	0.241	1006.6382	0.063353	-583.072142	-583.065147	-583.064203	-583.105363	24.643	
F	 0.2527693171	 0.1054468842	 0.0672983205	-0.043367
C	-0.0214998549	 1.403015274	 0.0493858641	 0.251281
F	 1.1252003622	 2.0831533396	-0.0833144672	-0.068516
F	-0.7691809115	 1.6696559907	-1.0298966017	-0.068468
C	-0.7382873702	 1.804829596	 1.308106619	 0.218408
N	-1.07354867	 1.058990566	 2.3064561621	-0.28741
C	-1.7021178684	 1.9363479983	 3.1807872733	-0.10896
C	-1.7021709078	 3.17704944	 2.6373925771	-0.031225
O	-1.0808735098	 3.1058642648	 1.4241899212	-0.163627
H	-2.1017763383	 1.6064022417	 4.1258538746	 0.140035
H	-2.0629245086	 4.1460295247	 2.9356531271	 0.16185
21.7606	140.1782	183.8619	374.1715	380.4464	409.9514	554.1335	582.855	633.1115	757.1541	763.8702	788.4846	874.9129	930.7418	956.0422	1107.1551	1125.7584	1142.8068	1181.5827	1185.5616	1241.8427	1311.8083	1410.0056	1542.2973	1629.9514	3272.2651	3306.1641
FC(F)(F)C1=NC=CO1	FC(F)(F)c1ncco1	
InChI=1S/C4H2F3NO/c5-4(6,7)3-8-1-2-9-3/h1-2H	InChI=1S/C4H2F3NO/c5-4(6,7)3-8-1-2-9-3/h1-2H
