11
gdb 133476	3.60693	1.25032	1.10864	4.904	48.5	-0.2936	-0.0171	0.2765	1009.9353	0.064692	-579.251133	-579.244179	-579.243235	-579.284213	24.538	
F	 0.5029650578	 0.2046294689	 0.2538866761	-0.06982
C	-0.0460533431	 1.4084502347	 0.0481881006	 0.265109
F	 0.9394564751	 2.2413798459	-0.3092036845	-0.069744
F	-0.8994972968	 1.309616151	-0.9707057754	-0.057197
C	-0.7371645413	 1.8999118928	 1.290019372	 0.167419
N	-2.0277923621	 2.1825723292	 1.3144987149	-0.249529
N	-2.1942237977	 2.5723466245	 2.595609678	-0.170902
C	-1.0243800792	 2.507638829	 3.2658857247	 0.01726
N	-0.0716467266	 2.081815624	 2.4623750559	-0.287584
H	-3.106231904	 2.8562476668	 2.9162554583	 0.293562
H	-0.9189704619	 2.7729531232	 4.3068707795	 0.161425
23.3455	153.7266	192.0587	377.4404	395.3363	412.4123	560.5724	580.1416	585.3505	685.1574	757.3974	795.5726	865.1364	984.6954	1003.3565	1112.0073	1149.2576	1192.9626	1197.4871	1227.303	1309.2323	1377.5302	1465.7005	1509.8373	1560.1854	3264.5097	3658.7127
FC(F)(F)C1=NNC=N1	FC(F)(F)c1n[nH]cn1	
InChI=1S/C3H2F3N3/c4-3(5,6)2-7-1-8-9-2/h1H,(H,7,8,9)	InChI=1S/C3H2F3N3/c4-3(5,6)2-7-1-8-9-2/h1H,(H,7,8,9)
