10
gdb 129146	2.29868	0.896	0.65926	4.7562	61.87	-0.3053	-0.1011	0.2041	1515.1478	0.047682	-463.84395	-463.833025	-463.832081	-463.885331	31.663	
N	-0.2309285179	 1.2744557985	 0.3158099758	-0.49976
C	-0.8051311596	 0.2413387288	 0.1056003659	 0.551735
N	 2.4201910535	-0.9061198537	-0.290534178	-0.013762
N	 3.0527891123	-1.7916193726	-0.1415211169	 0.013355
O	-0.2866322968	-2.4663243096	 0.7567545103	-0.281998
C	-1.3358956218	-2.0102837371	 0.3795219807	 0.287426
N	-1.5768441646	-0.7115830894	-0.0561759923	-0.338404
C	-2.5457530665	-2.8388493898	 0.3016294994	 0.269261
N	-3.4702752614	-3.5307778687	 0.2655347697	-0.306194
H	 0.6113692328	 1.6094862137	-0.1249466147	 0.318341
15.5758	34.845	38.8009	43.9325	59.9989	85.1031	115.2716	203.6274	299.2339	380.1428	491.6851	537.9401	574.9283	636.7654	742.0448	784.697	845.1804	1114.3914	1439.6071	1769.1329	2257.0601	2355.7214	2434.5963	3669.5336	15.5689	34.8433	38.7996	43.9314	59.9984	85.1029	115.2719	203.627	299.2337	380.1428	491.6851	537.9402	574.9286	636.7656	742.0451	784.6969	845.1803	1114.3909	1439.6069	1769.1307	2257.0598	2355.7223	2434.5963	3669.5341
N=C1N=NOC(=N1)C#N	[NH][C][N]C(=O)C#N.N#N	
InChI=1S/C3HN5O/c4-1-2-6-3(5)7-8-9-2/h5H	InChI=1S/C3HN3O.N2/c4-1-3(7)6-2-5;1-2/h5H;
