11
gdb 23791	4.0565	1.88366	1.28634	0.719	58.08	-0.2487	-0.0673	0.1814	830.875	0.072146	-438.65428	-438.648211	-438.647267	-438.68471	22.609	
F	 0.052642543	 0.062455027	 0.0025221854	-0.03052
C	-0.0670378101	 1.3673249589	 0.0110477517	 0.436649
C	-1.240304676	 2.0118602014	 0.0305708841	-0.383327
C	-1.2156882324	 3.4586400277	 0.0379099028	 0.300375
N	-2.2789043038	 4.1781589933	 0.0562343216	-0.523917
C	 0.1621081873	 3.9843999097	 0.0217978983	-0.007813
N	 1.260079967	 3.3229001129	 0.0032408278	-0.054568
O	 1.1520940141	 1.921462222	-0.002727455	-0.247731
H	-2.1716535122	 1.4641423396	 0.0404523494	 0.144545
H	-2.0438468493	 5.1727015488	 0.0582468918	 0.217625
H	 0.3164946923	 5.0619748987	 0.025386312	 0.148683
134.4979	202.6076	355.2667	409.6443	481.1636	511.2626	545.1215	659.4689	713.4106	737.4266	833.5352	876.7771	912.3167	958.3345	965.3582	1000.4163	1148.0995	1246.8664	1298.6418	1348.3744	1423.178	1641.72	1685.2333	1724.2336	3160.5256	3243.3762	3451.5922
FC1=CC(=N)C=NO1	F[C]1C=C([NH])C=NO1	
InChI=1S/C4H3FN2O/c5-4-1-3(6)2-7-8-4/h1-2,6H	InChI=1S/C4H3FN2O/c5-4-1-3(6)2-7-8-4/h1-2,6H
