11
gdb 23695	3.86477	2.06305	1.34505	0.4995	56.98	-0.2474	-0.0589	0.1884	803.0993	0.07307	-438.720434	-438.714471	-438.713527	-438.750765	22.157	
F	 0.111994075	 0.1034208214	 0.0022541495	-0.031888
C	-0.057079165	 1.3987801373	 0.0111891055	 0.418468
N	-1.2197513466	 1.9057584616	 0.0298193282	-0.375011
C	-1.2368097534	 3.2974469164	 0.0370277219	-0.007571
C	-0.1245051791	 4.056535104	 0.0254229501	-0.149009
C	 1.1786187492	 3.4329845415	 0.004217556	 0.395964
N	 2.295806854	 4.0168678606	-0.0083289467	-0.522369
O	 1.1234738669	 2.0051609367	-0.0021700315	-0.239125
H	-2.2267869312	 3.7389941958	 0.0529655181	 0.136467
H	-0.1523256857	 5.1370097851	 0.0312357458	 0.137358
H	 3.0714361358	 3.3557983695	-0.0223964471	 0.236716
137.476	199.8952	355.7062	408.8734	507.5789	529.6174	579.0794	697.911	759.5162	773.24	828.1506	866.8627	903.309	984.1318	1005.0357	1028.5004	1136.711	1212.0628	1289.4397	1386.4105	1426.5159	1627.3706	1700.2472	1776.3376	3201.4066	3243.8252	3508.7654
FC1=NC=CC(=N)O1	FC1=NCC=C([NH])O1	
InChI=1S/C4H3FN2O/c5-4-7-2-1-3(6)8-4/h1-2,6H	InChI=1S/C4H4FN2O/c5-4-7-2-1-3(6)8-4/h1,6H,2H2
