11
gdb 21464	9.70052	0.96401	0.87687	0.8565	63.65	-0.2604	-0.0806	0.1797	1177.0628	0.070114	-430.719375	-430.711636	-430.710692	-430.752268	25.699	
N	-0.3697807159	 1.4121364263	 0.0095628897	-0.424319
C	-0.0181974324	 0.2046754693	 0.0017620613	 0.120323
O	-1.004991156	-0.7484149226	 0.0042452267	-0.215972
C	-0.6145022725	-2.0701636429	-0.0039526498	 0.480497
C	-1.8049389008	-2.8942355102	 0.0002626765	-0.258981
N	-1.6453052614	-4.191711295	-0.0058495608	 0.307256
N	-1.4897758179	-5.3090833827	-0.0113390795	-0.190631
O	 0.5294806575	-2.4513988822	-0.0127569995	-0.384205
H	 0.4552814242	 2.0102148027	 0.0066834409	 0.240502
H	 0.9841630732	-0.223257107	-0.0067886027	 0.146553
H	-2.8150779581	-2.5170052858	 0.0080792472	 0.178977
70.2516	114.7534	118.0646	162.8767	238.2685	376.0191	473.594	507.564	529.1399	571.6984	745.4054	803.111	850.0132	980.6899	1030.945	1070.2163	1165.322	1192.4933	1269.9497	1386.237	1414.8354	1746.3987	1802.0305	2246.5816	3142.3815	3259.6726	3508.0916
N=COC1=CN=NO1	[NH][CH]OC(=O)[CH][N][N]	
InChI=1S/C3H3N3O2/c4-2-7-3-1-5-6-8-3/h1-2,4H	InChI=1S/C3H3N3O2/c4-2-8-3(7)1-6-5/h1-2,4H
