10
gdb 130661	3.17755	1.58503	1.05752	4.7993	61.77	-0.2947	-0.123	0.1717	987.2853	0.054237	-467.592559	-467.58568	-467.584736	-467.624599	24.17	
O	 0.0349531712	-0.0207550505	 0.0030603427	-0.285625
C	-0.0175367909	 1.1804048861	 0.0101003589	 0.379376
N	-1.2126469611	 1.9114979664	 0.0290850698	-0.298974
C	-1.119239255	 3.1812289138	 0.0342031308	 0.178359
O	-0.0003352296	 3.93676856	 0.0234804434	-0.193656
N	 1.2370553423	 3.3207373794	 0.0045181123	-0.09812
C	 1.2191919136	 2.0283196346	-0.0014780817	 0.10798
C	 2.4995228412	 1.3838898621	-0.0223501593	 0.316299
N	 3.5210685257	 0.8438679944	-0.0390362081	-0.287799
H	-1.9917541175	 3.8305997137	 0.0486630312	 0.18216
63.6116	152.1369	200.9343	383.1996	401.4883	446.8723	468.5777	572.7709	575.9983	616.1873	711.8384	836.0992	924.2925	933.6095	985.0101	1006.7628	1189.0376	1311.2872	1412.3027	1586.6117	1663.3461	1822.3601	2362.3401	3180.7105
O=C1N=CON=C1C#N	O=c1nconc1C#N	
InChI=1S/C4HN3O2/c5-1-3-4(8)6-2-9-7-3/h2H	InChI=1S/C4HN3O2/c5-1-3-4(8)6-2-9-7-3/h2H
