11
gdb 23633	4.21865	1.87574	1.29842	1.9007	57.1	-0.2433	-0.0629	0.1804	822.4559	0.072968	-438.717814	-438.711837	-438.710893	-438.748151	22.264	
F	 0.0581075423	 0.0630269781	 0.0026468464	-0.048328
C	-0.0364193846	 1.3786342125	 0.0108216444	 0.342953
C	-1.2346628078	 1.992028235	 0.0306048982	-0.319799
C	-1.2768841754	 3.4344569537	 0.038722643	 0.408388
N	-2.3180497716	 4.1487490615	 0.0568879012	-0.531072
O	 0.0082473332	 4.0460662987	 0.024153573	-0.217985
C	 1.1128667249	 3.2952957988	 0.0049443106	 0.147832
N	 1.1774828282	 2.0176675093	-0.0026302723	-0.318389
H	-2.1687248166	 1.4495832317	 0.0406959655	 0.145314
H	-2.0914662029	 5.142326034	 0.0589541822	 0.231308
H	 2.0114661202	 3.9047451165	-0.0042973822	 0.159779
144.5048	193.7131	368.0172	428.6516	461.2741	543.7765	575.2176	679.4951	741.6277	761.214	833.0374	874.776	876.3956	967.071	971.3641	1071.477	1156.5845	1243.6981	1290.0433	1367.227	1432.4404	1637.0558	1686.5483	1770.4912	3197.0626	3247.3584	3508.9706
FC1=CC(=N)OC=N1	F[C@H]1C=C([NH])OC=N1	
InChI=1S/C4H3FN2O/c5-3-1-4(6)8-2-7-3/h1-2,6H	InChI=1S/C4H4FN2O/c5-3-1-4(6)8-2-7-3/h1-3,6H/t3-/m1/s1
