11
gdb 132182	3.2887	1.42899	0.99615	4.058	55.64	-0.2657	-0.0499	0.2158	1032.5349	0.065904	-533.831511	-533.82469	-533.823746	-533.863111	25.241	
O	-0.1093614777	 1.2916066918	 0.0101797202	-0.37194
C	 0.0370596729	-0.0269374341	 0.0021613164	 0.512459
N	 1.1813212974	-0.5979481202	-0.0072016193	-0.436695
C	 1.2613365267	-1.9996703213	-0.0151150051	 0.315199
O	 2.3068276537	-2.602806078	-0.0241421249	-0.333569
C	-0.0559664632	-2.6724081802	-0.0113655523	 0.09988
F	-0.0765346878	-3.9945903345	-0.0182978559	-0.041997
C	-1.1927240358	-1.9706125243	-0.0012856348	-0.065237
O	-1.1761728738	-0.6011824583	 0.0059057806	-0.17789
H	 0.7841772802	 1.6640136544	 0.0072643897	 0.330398
H	-2.1934876626	-2.3770133354	 0.0021355355	 0.169391
100.5953	190.9934	299.4407	377.715	381.8025	399.4621	470.9225	539.4656	564.24	628.5117	755.3465	756.8422	797.9121	805.2756	878.1346	961.2176	1120.4922	1241.2351	1269.5256	1300.8222	1388.1815	1466.9448	1659.1879	1729.4729	1813.0917	3251.2467	3780.4051
OC1=NC(=O)C(F)=CO1	Oc1nc(=O)c(F)co1	
InChI=1S/C4H2FNO3/c5-2-1-9-4(8)6-3(2)7/h1H,(H,6,7,8)	InChI=1S/C4H2FNO3/c5-2-1-9-4(8)6-3(2)7/h1H,(H,6,7,8)
