10
gdb 23699	4.0849	2.07066	1.37411	1.806	52.55	-0.2755	-0.0795	0.196	774.9776	0.061082	-454.773734	-454.767816	-454.766872	-454.804256	21.254	
F	 0.0997723897	 0.1025806543	 0.0024508312	-0.019272
C	-0.0425121467	 1.3964475554	 0.0110978019	 0.432375
N	-1.2056198562	 1.9234765734	 0.0297622255	-0.372308
C	-1.1597469615	 3.3083226511	 0.0359193567	 0.08087
N	-0.1136447698	 4.0605617693	 0.025338326	-0.245793
C	 1.1218245701	 3.4669484346	 0.0053116974	 0.457102
N	 2.2261377326	 4.0598999517	-0.0069769666	-0.498023
O	 1.1216949451	 1.9993951817	-0.0020788322	-0.233504
H	-2.132335254	 3.7929823593	 0.0520776641	 0.152802
H	 3.0069453706	 3.4066605391	-0.0210625541	 0.245752
98.5804	188.9787	357.3659	425.9868	507.8525	554.5593	580.2072	741.7235	768.6537	788.5052	852.5583	884.969	941.9045	1016.0521	1017.0688	1180.5817	1264.5536	1409.3765	1427.9561	1590.6613	1705.8691	1796.8353	3181.7018	3529.1858
FC1=NC=NC(=N)O1	FC1=NCN=C([NH])O1	
InChI=1S/C3H2FN3O/c4-2-6-1-7-3(5)8-2/h1,5H	InChI=1S/C3H3FN3O/c4-2-6-1-7-3(5)8-2/h5H,1H2
