11
gdb 24810	3.67543	1.29896	0.95976	5.1599	66.24	-0.2793	-0.1002	0.1792	1088.7965	0.066785	-451.587842	-451.580922	-451.579978	-451.619753	24.773	
O	-0.0203183861	-0.0655894818	 0.003324474	-0.315005
C	-0.0408352863	 1.1397034161	 0.0097125639	 0.382103
C	-1.2617463651	 1.9536327718	 0.0312237859	-0.240259
C	-1.1800939714	 3.2886435008	 0.0369523125	 0.064417
O	 0.0124980204	 3.945359805	 0.0233189934	-0.199123
C	 1.1221205035	 3.1593547076	 0.0032708812	 0.316161
N	 1.178141901	 1.8908352151	-0.0037209712	-0.327447
C	 2.3207967691	 3.9629266233	-0.0087585045	 0.296522
N	 3.2843972354	 4.5995173695	-0.0185121029	-0.296134
H	-2.2229558611	 1.4570675104	 0.0423571019	 0.1497
H	-2.0091160793	 3.9840045622	 0.052360226	 0.169065
107.3037	134.7542	158.2248	382.2567	414.277	444.7406	493.3413	529.2542	590.8192	716.1415	738.472	781.9497	865.2089	899.0001	950.0243	980.0708	1031.8491	1164.5447	1239.6489	1304.3106	1408.6141	1629.2739	1698.9609	1816.3514	2370.3584	3223.8158	3241.7519
O=C1C=COC(=N1)C#N	O=c1ccoc(n1)C#N	
InChI=1S/C5H2N2O2/c6-3-5-7-4(8)1-2-9-5/h1-2H	InChI=1S/C5H2N2O2/c6-3-5-7-4(8)1-2-9-5/h1-2H
