11
gdb 21912	3.80581	1.90493	1.2695	1.1864	61.05	-0.2453	-0.028	0.2173	857.4655	0.071814	-397.361082	-397.354475	-397.353531	-397.391829	24.734	
O	 0.1282035021	 1.3211849435	 0.1470800857	-0.407868
C	 0.081316059	-0.0113469161	 0.0645288186	 0.362758
N	 0.0785915787	-0.6475692639	-1.0789335825	-0.241276
O	 0.0232760994	-2.0053119139	-0.7383647669	-0.165647
C	-0.0046392878	-2.1202709531	 0.5900920508	-0.00501
C	 0.0291596882	-0.8961724531	 1.1946264978	-0.041613
C	 0.0167823822	-0.5668623589	 2.5648067911	 0.238084
C	 0.0066644761	-0.2737385682	 3.7317533388	-0.417508
H	 0.1570239262	 1.6743983029	-0.7526850688	 0.316366
H	-0.0481203872	-3.12305693	 0.9857213104	 0.165989
H	-0.0022138569	-0.0127903793	 4.7609464149	 0.195725
135.8498	167.8762	314.0001	369.7892	437.1968	500.9751	536.2928	569.521	591.5167	597.9211	667.6919	743.9768	747.5654	851.9711	912.4005	946.0638	1169.8279	1215.1649	1253.7138	1302.1934	1477.0831	1566.2306	1653.3242	2244.1798	3269.0877	3503.1787	3778.1915
OC1=NOC=C1C#C	Oc1nocc1C#C	
InChI=1S/C5H3NO2/c1-2-4-3-8-6-5(4)7/h1,3H,(H,6,7)	InChI=1S/C5H3NO2/c1-2-4-3-8-6-5(4)7/h1,3H,(H,6,7)
