11
gdb 21773	7.069	1.38014	1.1547	2.6904	62.64	-0.2286	-0.0375	0.1911	929.2891	0.073192	-393.58885	-393.582149	-393.581204	-393.619682	24.74	
O	 0.0113011164	-0.0496885703	 0.0038602592	-0.414673
C	-0.001602146	 1.1590076475	 0.0099103341	 0.45078
N	-1.0745739694	 2.0368645408	 0.0286083753	-0.291597
N	-0.7314906644	 3.3581201333	 0.0313314394	-0.256468
C	 0.5752075665	 3.3501958743	 0.012793627	 0.245567
N	 1.0673757226	 2.0591814605	-0.0006764246	-0.410797
C	 1.4015168296	 4.4942609531	 0.007151775	 0.288782
C	 2.1463925407	 5.4385676013	 0.0016859442	-0.397955
H	-2.0434385944	 1.7689450207	 0.0427951331	 0.288285
H	 2.0331216572	 1.7809345971	-0.0153127393	 0.285946
H	 2.7907957413	 6.2831714116	-0.0028611333	 0.212129
130.7415	149.7885	247.1486	416.5161	433.7898	487.0238	520.4672	569.7473	580.5055	606.5596	698.6534	722.6059	757.7335	769.5062	1002.5742	1013.4076	1100.9584	1240.0165	1270.5748	1386.921	1450.6758	1582.1622	1864.7748	2244.3372	3499.7827	3689.1627	3691.3244
O=C1NN=C(N1)C#C	O=c1[nH]nc([nH]1)C#C	
InChI=1S/C4H3N3O/c1-2-3-5-4(8)7-6-3/h1H,(H2,5,6,7,8)	InChI=1S/C4H3N3O/c1-2-3-5-4(8)7-6-3/h1H,(H2,5,6,7,8)
