11
gdb 132940	3.23856	1.46326	1.00788	1.97	57.33	-0.2698	-0.0739	0.1959	1027.7075	0.064744	-533.816573	-533.809503	-533.808559	-533.848898	25.502	
F	-0.023119108	 0.0251973573	-0.3561053496	-0.0407
C	-0.0385586174	 1.3156414842	-0.0564377405	 0.045745
C	-1.1784939905	 1.9926613335	 0.107759504	-0.031051
O	-1.2178471424	 3.3068383537	 0.4130903441	-0.188631
C	-0.0578278328	 4.0176233273	 0.5710511442	 0.487708
N	-0.1437644285	 5.2337827251	 0.8543232251	-0.521696
O	 1.1180731123	 3.3409820815	 0.4065716546	-0.25561
C	 1.2467948025	 1.9846786737	 0.0909235858	 0.373531
O	 2.3343343354	 1.5139443954	-0.0251148471	-0.299739
H	-2.1634182288	 1.5548639728	 0.0121864942	 0.177344
H	 0.7810333482	 5.6480020655	 0.9449304352	 0.253098
58.4664	127.6149	296.6055	349.5813	359.3971	378.8585	455.5282	525.2985	623.1493	700.5491	719.1501	758.8442	816.7237	839.0892	920.8479	923.7659	1033.9286	1068.8306	1249.2744	1276.3431	1339.8406	1413.8256	1729.9412	1783.3286	1891.4525	3234.2091	3544.7738
FC1=COC(=N)OC1=O	FC1=CO[C]([NH])OC1=O	
InChI=1S/C4H2FNO3/c5-2-1-8-4(6)9-3(2)7/h1,6H	InChI=1S/C4H2FNO3/c5-2-1-8-4(6)9-3(2)7/h1,6H
