11
gdb 24755	3.79585	1.23322	0.93081	5.2323	64.06	-0.2897	-0.1057	0.1839	1114.0023	0.06668	-451.588119	-451.580997	-451.580053	-451.620598	24.665	
O	 0.0295972275	-0.0444839318	 0.0039810659	-0.285273
C	-0.0478427215	 1.1637308618	 0.0077698331	 0.202001
C	 1.1750748507	 1.9913952813	 0.0010876051	 0.261872
N	 2.1648932932	 2.5879022928	-0.0045135641	-0.313627
C	-1.3126079832	 1.8997100952	 0.0189224128	 0.174917
C	-2.5709629592	 1.3721253241	 0.0266969864	-0.061064
O	-3.4485302087	 2.3971473433	 0.0358002533	-0.126339
C	-2.6711570869	 3.5191036809	 0.0330562224	 0.070647
N	-1.4054323062	 3.2880924831	 0.0232968406	-0.292117
H	-2.9670550634	 0.3716427791	 0.0269385903	 0.193081
H	-3.1893880023	 4.4645513901	 0.0393255843	 0.175901
68.8071	119.9401	189.0175	238.5888	313.35	455.9445	485.9042	626.2292	668.0834	675.7062	788.1927	843.1671	873.6172	926.2075	937.7361	1061.0151	1089.3144	1143.8445	1242.3899	1318.6755	1354.6942	1562.1187	1585.4463	1761.2431	2347.0323	3287.6389	3305.0784
O=C(C#N)C1=COC=N1	O=C(C#N)c1cocn1	
InChI=1S/C5H2N2O2/c6-1-5(8)4-2-9-3-7-4/h2-3H	InChI=1S/C5H2N2O2/c6-1-5(8)4-2-9-3-7-4/h2-3H
