10
gdb 133421	3.32288	1.46988	1.01909	4.338	52.53	-0.2818	-0.0831	0.1988	1001.4762	0.052999	-549.840431	-549.8336	-549.832656	-549.872189	24.801	
O	-0.0079584192	 1.310283777	 0.0076844743	-0.361642
C	-0.0503934989	-0.0112250813	 0.0010257576	 0.546395
N	-1.168387529	-0.6318142101	 0.0040869523	-0.376392
C	-1.1263392655	-2.0159741754	-0.0033596333	 0.316614
O	-2.0886674394	-2.7398630867	-0.0016796129	-0.309679
C	 0.2651155997	-2.578603999	-0.0141447073	 0.254682
F	 0.3731870151	-3.8814047045	-0.0215083692	-0.009216
N	 1.3616913057	-1.9250033366	-0.0168993791	-0.124942
O	 1.1975183474	-0.5306407559	-0.0086949331	-0.266787
H	 0.9147897542	 1.6027560524	 0.0040349707	 0.330966
80.1928	184.7702	316.759	351.6606	388.4222	429.2115	486.9351	488.8363	536.5389	641.518	716.5021	745.9733	808.9636	818.5215	978.262	1007.7589	1209.6424	1288.0855	1377.2631	1422.5599	1678.4044	1702.6758	1827.7774	3776.5827
OC1=NC(=O)C(F)=NO1	Oc1nc(=O)c(F)no1	
InChI=1S/C3HFN2O3/c4-1-2(7)5-3(8)9-6-1/h(H,5,7,8)	InChI=1S/C3HFN2O3/c4-1-2(7)5-3(8)9-6-1/h(H,5,7,8)
