10
gdb 5356	6.44601	1.65191	1.31493	3.5279	59.7	-0.304	-0.1045	0.1995	819.1745	0.063413	-372.550957	-372.545154	-372.54421	-372.581123	20.368	
N	 0.0174701245	-1.1330976068	-0.0034056324	-0.304378
C	 0.0017336784	 0.0219313814	 0.0028911516	 0.301713
C	-0.0178895845	 1.4684333802	 0.0107895238	 0.262271
N	-1.2165931173	 2.0551452997	 0.0300694874	-0.259922
C	-1.1640945007	 3.3873334493	 0.0362730003	 0.088279
N	-0.0539526925	 4.1261178436	 0.0249828053	-0.223532
C	 1.0758234033	 3.4178901582	 0.0059646105	 0.088279
N	 1.1644485988	 2.0876261039	-0.0021228784	-0.259922
H	-2.1140838242	 3.9154015999	 0.0518441667	 0.153606
H	 2.0111320242	 3.9716756005	-0.0039129147	 0.153607
133.163	176.4804	350.6081	357.6296	503.5232	574.6419	602.2481	709.0648	820.3381	852.8335	987.8283	1004.3164	1050.1163	1181.6405	1188.4785	1269.8583	1307.9312	1422.2285	1450.0151	1574.8875	1590.7539	2367.436	3177.7714	3181.2015
N#CC1=NC=NC=N1	N#Cc1ncncn1	
InChI=1S/C4H2N4/c5-1-4-7-2-6-3-8-4/h2-3H	InChI=1S/C4H2N4/c5-1-4-7-2-6-3-8-4/h2-3H
