9
gdb 23896	5.16736	0.8784	0.86516	1.725	46.69	-0.2961	-0.0972	0.199	1215.5933	0.043102	-527.665598	-527.657917	-527.656973	-527.700447	24.512	
F	 0.0162624637	 0.0486114808	-0.0205801283	-0.062998
C	-0.0142426237	 1.3845355867	 0.005285382	 0.274861
F	 1.2453934985	 1.8265933264	-0.0338887103	-0.060087
F	-0.6392677222	 1.8040432947	-1.0978819156	-0.060121
C	-0.6990381085	 1.874645788	 1.2075394682	-0.104772
C	-1.2580324306	 2.2891895433	 2.1889492691	 0.071228
C	-1.937925507	 2.7542751045	 3.3831254538	 0.021601
O	-2.0944988775	 3.9198592323	 3.6493479755	-0.202684
H	-2.3062177127	 1.9422110433	 4.0388184856	 0.122973
12.9739	84.9328	106.3883	209.6972	285.3672	390.5765	452.1669	467.0908	610.4805	621.4698	668.05	795.2684	1018.5312	1023.3428	1197.5074	1199.629	1265.4762	1418.0905	1779.4767	2363.2512	2949.6245
FC(F)(F)C#CC=O	FC(F)(F)C#CC=O	
InChI=1S/C4HF3O/c5-4(6,7)2-1-3-8/h3H	InChI=1S/C4HF3O/c5-4(6,7)2-1-3-8/h3H
