11
gdb 130902	2.33279	1.61492	0.95429	3.591	65.42	-0.2823	-0.0905	0.1917	1088.7029	0.067632	-447.742608	-447.735475	-447.734531	-447.774873	24.708	
O	-0.0336150035	-0.0355380604	-0.001153411	-0.234774
C	 0.0066444379	 1.1676505803	 0.0071549284	 0.075444
C	 1.2576522627	 1.956470662	-0.0008707379	 0.13443
N	 2.4788468264	 1.4102679611	-0.0183825286	-0.214066
N	 3.2787768202	 2.4563260018	-0.0195004737	-0.05891
N	 2.7222465915	 3.6560097641	-0.0045459841	-0.254779
C	 1.4153371618	 3.3658302897	 0.0077164466	 0.198326
C	 0.4118222937	 4.370194622	 0.026153304	 0.248212
N	-0.4387374772	 5.153816908	 0.0412990103	-0.321752
H	-0.9108405393	 1.7910696989	 0.0217429625	 0.110227
H	 4.2834406359	 2.3503530623	-0.0313639964	 0.317641
120.6249	120.9096	178.8455	233.8091	278.9165	439.7129	524.3337	573.0547	621.0485	632.7424	731.0607	768.2401	821.8302	1005.2884	1037.3892	1146.6735	1220.0053	1264.6069	1341.7865	1424.2296	1433.34	1490.9829	1532.8815	1815.9843	2363.2875	2928.7734	3636.8688
O=CC1=NNN=C1C#N	O=Cc1n[nH]nc1C#N	
InChI=1S/C4H2N4O/c5-1-3-4(2-9)7-8-6-3/h2H,(H,6,7,8)	InChI=1S/C4H2N4O/c5-1-3-4(2-9)7-8-6-3/h2H,(H,6,7,8)
