11
gdb 133451	3.26193	1.46584	1.01136	2.7256	57.36	-0.2958	-0.0846	0.2111	1020.6651	0.065828	-529.97231	-529.965386	-529.964442	-530.004109	25.484	
F	 0.1280331735	 0.054183154	 0.2182093785	-0.036609
C	 0.0254562598	 1.3589627915	 0.0539592221	 0.303624
N	-1.1445484383	 1.8427222637	-0.0273894991	-0.108361
O	-1.2471915728	 3.2233892588	-0.2010852888	-0.262341
C	-0.1469754844	 4.058276489	-0.2849576494	 0.535253
O	-0.315263904	 5.2307598223	-0.4343843871	-0.342062
N	 1.0799462618	 3.4437790738	-0.1865305673	-0.425404
C	 1.3019172828	 2.0883031597	-0.0138652942	 0.301865
N	 2.4732465221	 1.6079445215	 0.0669848875	-0.508914
H	 1.8876187119	 4.049786754	-0.2475304293	 0.292977
H	 2.4389132276	 0.5977155518	 0.1921228769	 0.24997
103.0391	129.4316	319.145	340.2231	399.6925	413.4718	461.3972	542.8794	624.7915	653.4724	711.9326	746.5655	756.1254	804.4243	874.5263	908.4979	1019.3389	1131.4755	1275.2034	1328.8242	1417.5749	1474.1585	1695.0618	1742.8556	1893.6354	3519.8509	3607.3454
FC1=NOC(=O)NC1=N	FC1=NOC(=O)N[C]1[NH]	
InChI=1S/C3H2FN3O2/c4-1-2(5)6-3(8)9-7-1/h(H2,5,6,8)	InChI=1S/C3H2FN3O2/c4-1-2(5)6-3(8)9-7-1/h(H2,5,6,8)
