11
gdb 130837	4.62332	1.16677	0.93165	2.3548	60.02	-0.2908	-0.1279	0.1628	1115.0247	0.06521	-484.847043	-484.839702	-484.838758	-484.880267	24.474	
O	-0.0725360177	 0.0400777482	 0.0027909233	-0.187326
C	-0.0256623316	 1.2360963155	 0.0084598496	 0.067937
C	 1.3626403089	 1.926057013	-0.0018794664	 0.367288
O	 2.3984557529	 1.3389773171	-0.0152939221	-0.229453
N	 1.3141540288	 3.3617345491	 0.0058879787	 0.027533
N	 2.3962273102	 4.1463448844	-0.000935358	-0.196179
C	 1.8496516386	 5.342517347	 0.0104348036	 0.103855
N	 0.4806941545	 5.3052840787	 0.0241442703	-0.18524
N	 0.1535982191	 4.0566982632	 0.0212284789	-0.097072
H	-0.9108669401	 1.8916352904	 0.0205550354	 0.156107
H	 2.4187064164	 6.2579142434	 0.0093157167	 0.17255
59.9973	66.5768	173.5316	187.2449	305.5907	401.8376	484.7665	562.3778	698.1627	720.3259	831.6115	919.5534	952.361	1010.4678	1014.5535	1041.6119	1124.7692	1166.3899	1287.7719	1312.6724	1362.5739	1410.9445	1514.4307	1831.4337	1868.321	3020.9919	3293.1011
O=CC(=O)N1N=CN=N1	O=CC(=O)n1ncnn1	
InChI=1S/C3H2N4O2/c8-1-3(9)7-5-2-4-6-7/h1-2H	InChI=1S/C3H2N4O2/c8-1-3(9)7-5-2-4-6-7/h1-2H
