11
gdb 25127	3.08327	1.61071	1.24716	3.2332	58.59	-0.2882	-0.1074	0.1808	927.8642	0.065975	-488.72145	-488.714572	-488.713627	-488.753298	24.583	
O	 0.2949589389	-0.0448271215	-0.1745054457	-0.267911
C	 0.1057043295	 1.1299251271	-0.2168341038	 0.407568
O	-1.1421234729	 1.5911984299	-0.6242793536	-0.212646
C	-1.5050772073	 2.8997277983	-0.7949530006	 0.144709
N	-0.7945925458	 3.8895627979	-1.1135414016	-0.246589
C	 0.5848871063	 3.722323494	-1.3608599313	 0.383106
O	 1.1058123584	 4.0014604532	-2.4007065056	-0.276543
N	 1.3346837154	 3.2936765612	-0.2343123359	-0.180115
C	 1.1183924415	 2.1427059894	 0.2507107416	-0.09311
H	-2.5790543013	 2.993489142	-0.6581189262	 0.170084
H	 1.7355143972	 1.7789578484	 1.0727872926	 0.171447
83.2721	128.8107	257.6572	303.0094	361.9444	457.3932	490.3406	596.7054	653.7403	717.9904	725.7751	822.0103	844.9011	897.8057	947.7368	983.792	1058.3275	1144.2582	1209.3133	1375.5918	1413.6692	1715.1114	1728.8654	1847.2883	1868.3197	3137.5341	3188.5244
O=C1OC=NC(=O)N=C1	O=c1ocnc(=O)nc1	
InChI=1S/C4H2N2O3/c7-3-1-5-4(8)6-2-9-3/h1-2H	InChI=1S/C4H2N2O3/c7-3-1-5-4(8)6-2-9-3/h1-2H
