11
gdb 129100	2.0596	1.12989	1.08138	4.3959	57.39	-0.2803	-0.1236	0.1567	1175.9279	0.061433	-484.878482	-484.868947	-484.868003	-484.917747	28.788	
N	-0.0987674891	 1.2620844822	 0.6812964634	-0.441933
C	 0.2656123422	 0.0986926645	 0.3311678508	 0.124016
C	 1.4581753862	-0.4434398786	-0.3188895487	-0.018701
N	 1.3949047302	-1.7159412954	-0.4760267741	-0.049094
O	 0.1643578124	-2.1913302676	 0.0397526354	-0.238775
N	-1.989578959	-1.5502728356	-3.4028676161	 0.00631
N	-1.3673387872	-1.0771206998	-2.631105747	-0.005051
C	-0.5767338764	-1.1417099363	 0.5490066948	 0.50373
O	-1.6498043905	-1.2863773712	 1.0417296979	-0.288835
H	 0.6120118625	 1.9609631042	 0.4451448828	 0.248307
H	 2.3358155686	 0.0929936436	-0.6576125193	 0.160025
17.4801	21.5087	44.045	57.4581	73.1161	161.6605	318.6735	324.0671	513.978	529.5797	647.7697	756.5713	783.1997	831.9557	874.2355	887.3972	967.9386	1043.3202	1137.3938	1272.2053	1338.6595	1624.0627	1745.0849	1904.5983	2434.4638	3220.1839	3435.3446	17.4781	21.5074	44.0445	57.4566	73.1151	161.6603	318.6735	324.0667	513.9777	529.5798	647.77	756.5713	783.1999	831.9557	874.2356	887.3974	967.9386	1043.32	1137.3939	1272.2053	1338.6597	1624.0631	1745.0847	1904.5984	2434.4638	3220.1839	3435.3445
N=C1C=NON=NC1=O	[NH]c1cnoc1=O.N#N	
InChI=1S/C3H2N4O2/c4-2-1-5-9-7-6-3(2)8/h1,4H	InChI=1S/C3H3N2O2.N2/c4-2-1-5-7-3(2)6;1-2/h1,4-5H;
