10
gdb 133473	3.59561	1.2047	1.07104	2.6539	45.81	-0.3091	-0.0657	0.2434	1016.8763	0.050286	-599.079401	-599.072419	-599.071475	-599.112142	24.435	
F	-0.4524057014	 0.1805172415	-0.2982368993	-0.06042
C	-0.0217123801	 1.4018748372	 0.0293066723	 0.245119
F	 1.2997147274	 1.3268463578	 0.2101955404	-0.06043
F	-0.2565062491	 2.2207683121	-1.0077904082	-0.074552
C	-0.7169624685	 1.9269279681	 1.2414515725	 0.091432
C	-1.485555023	 3.0357560146	 1.3922107103	-0.030065
O	-1.894777283	 3.1026087255	 2.6480768648	-0.161123
N	-1.3316427833	 1.9472862705	 3.3143964864	 0.011257
N	-0.6684653404	 1.3079078085	 2.4679447763	-0.158144
H	-1.7966319587	 3.8127599243	 0.7137006845	 0.196925
41.5032	145.0916	172.3927	370.5087	400.2878	412.1245	556.4865	562.2005	584.0907	650.5628	740.1748	750.9855	892.2069	974.3985	1012.793	1144.4516	1163.899	1200.1074	1204.8076	1342.9647	1344.9114	1490.2007	1623.7753	3292.0085
FC(F)(F)C1=CON=N1	FC(F)(F)c1conn1	
InChI=1S/C3HF3N2O/c4-3(5,6)2-1-9-8-7-2/h1H	InChI=1S/C3HF3N2O/c4-3(5,6)2-1-9-8-7-2/h1H
