10
gdb 23734	5.85266	1.59454	1.25313	4.2055	52.47	-0.2643	-0.0938	0.1705	829.0152	0.059985	-458.595735	-458.589749	-458.588804	-458.626329	21.767	
F	 0.0029343389	-0.0050559642	 0.003331313	-0.062407
C	-0.0342660239	 1.325931278	 0.0106322631	 0.151458
C	-1.1951423657	 2.0126416652	 0.0294640473	-0.004928
O	-1.1951492628	 3.3438183935	 0.0362986983	-0.198762
C	 0.0283049486	 4.0944843869	 0.0239652284	 0.459646
O	-0.0801532484	 5.2804128396	 0.0315840868	-0.315865
N	 1.2100840031	 3.3747745443	 0.004770022	-0.304198
C	 1.1735447271	 2.0777639951	-0.0014118792	-0.044869
H	-2.1824212816	 1.5642639017	 0.0401937069	 0.167702
H	 2.1226475347	 1.5408520698	-0.0166142566	 0.152224
73.1474	341.1557	350.8046	382.1533	486.2053	494.8387	505.6475	629.9111	715.0539	778.6915	794.1218	926.5312	941.4678	1003.2168	1041.0015	1248.6769	1290.9382	1363.1555	1450.9869	1566.4144	1718.5041	1885.3655	3135.7866	3206.5674
FC1=COC(=O)N=C1	Fc1coc(=O)nc1	
InChI=1S/C4H2FNO2/c5-3-1-6-4(7)8-2-3/h1-2H	InChI=1S/C4H2FNO2/c5-3-1-6-4(7)8-2-3/h1-2H
