11
gdb 131247	5.62619	1.35961	1.095	1.8338	60.45	-0.2333	-0.0649	0.1683	965.4469	0.067089	-484.819793	-484.813603	-484.812659	-484.850287	23.803	
O	 0.084693157	 1.2983532908	-0.0420024072	-0.413313
C	 0.0660546978	-0.0387301022	-0.0779791197	 0.37295
C	-0.0028114687	-0.8122244083	-1.2178797556	-0.248059
N	 0.0086214488	-2.102199704	-0.6864131268	 0.021382
N	-0.0256181743	-3.3954321776	-1.0340957162	-0.058634
N	 0.0197931584	-4.0986222101	 0.0116356997	-0.003568
O	 0.0906467061	-3.2248104187	 1.1654656895	-0.236518
C	 0.0803576575	-1.9925213488	 0.6695451321	 0.55613
N	 0.1183474025	-0.7661954005	 1.1053297815	-0.470658
H	 0.1361712949	 1.555254191	 0.8877448849	 0.315411
H	-0.0544280001	-0.5915029715	-2.2661173822	 0.164878
159.8967	322.0133	341.904	342.8561	400.428	531.5062	583.4324	587.1433	640.2105	688.4401	704.8746	745.5272	805.7265	887.9336	992.071	1029.3758	1143.5915	1205.9318	1267.5864	1369.8731	1389.212	1422.2532	1475.3916	1628.4701	1659.1939	3328.8878	3794.9532
OC1=CN2N=NOC2=N1	Oc1cn2nnoc2n1	
InChI=1S/C3H2N4O2/c8-2-1-7-3(4-2)9-6-5-7/h1,8H	InChI=1S/C3H2N4O2/c8-2-1-7-3(4-2)9-6-5-7/h1,8H
