11
gdb 12172	3.72047	1.58485	1.22439	3.2686	52.32	-0.2898	-0.0303	0.2596	905.4411	0.07106	-434.551671	-434.544364	-434.54342	-434.583788	24.955	
O	-0.0177397549	 1.285311755	 0.2846627336	-0.407969
C	 0.0892036125	-0.0716639171	-0.007939992	-0.080421
C	-1.2834334046	-0.7575469838	-0.2242678549	-0.009561
O	-0.88167887	-1.1630044009	-1.5704955552	-0.238691
C	 0.3137401718	-0.4757018773	-1.483956126	 0.434214
O	 1.123589475	-0.3107624094	-2.3310534768	-0.298927
C	-1.6168762931	-1.8925856575	 0.6246230771	 0.286744
N	-1.8764645393	-2.7773310347	 1.3200551427	-0.30083
H	 0.866879958	 1.6644617856	 0.3306395627	 0.31303
H	 0.7450934382	-0.6211251158	 0.6786882258	 0.138202
H	-2.1054932836	-0.0395130042	-0.265021407	 0.164209
84.596	140.2075	178.0973	230.8539	259.1806	368.6679	461.7818	509.6504	577.3722	715.7818	747.6686	882.8404	929.3049	985.66	1047.2973	1108.8035	1152.0707	1194.1225	1245.9597	1291.4429	1353.5927	1434.3158	1961.0386	2368.759	3040.2643	3102.7764	3819.603
OC1C(OC1=O)C#N	O[C@H]1[C@@H](OC1=O)C#N	
InChI=1S/C4H3NO3/c5-1-2-3(6)4(7)8-2/h2-3,6H	InChI=1S/C4H3NO3/c5-1-2-3(6)4(7)8-2/h2-3,6H/t2-,3-/m0/s1
