11
gdb 23679	3.94616	1.99133	1.32347	2.5468	54.52	-0.2693	-0.0392	0.2301	808.5883	0.074216	-438.759329	-438.753602	-438.752658	-438.78931	21.676	
O	 0.1069013183	 1.3186026226	 0.0787322058	-0.401241
C	 0.0697204529	-0.0174024594	 0.0536525705	 0.453105
N	 0.0819950348	-0.6137190075	-1.1360481041	-0.403355
C	 0.0437437906	-1.9362194873	-1.1049851175	 0.355684
F	 0.0564177276	-2.5207927381	-2.2860918207	-0.053231
N	-0.0044371212	-2.7409111569	-0.0645318268	-0.32095
C	-0.015657228	-2.1106094453	 1.1211887861	 0.026374
C	 0.0199936826	-0.7355012789	 1.2531375072	-0.222505
H	 0.1378549688	 1.6145344689	-0.8428861597	 0.309662
H	-0.0552359572	-2.7497459921	 1.9990948431	 0.131519
H	 0.0106953807	-0.2343587561	 2.210775916	 0.124938
201.8194	233.1892	359.8803	467.0911	535.0721	562.0022	571.1393	594.5307	734.174	793.0414	813.9215	854.614	1002.1376	1011.0978	1043.1551	1108.51	1212.8801	1305.9772	1347.7638	1399.5206	1476.3324	1505.1452	1627.3801	1651.5221	3173.4683	3235.7931	3756.045
OC1=NC(F)=NC=C1	Oc1nc(F)ncc1	
InChI=1S/C4H3FN2O/c5-4-6-2-1-3(8)7-4/h1-2H,(H,6,7,8)	InChI=1S/C4H3FN2O/c5-4-6-2-1-3(8)7-4/h1-2H,(H,6,7,8)
