9
gdb 21778	7.26911	1.43566	1.19888	4.2545	54.33	-0.2866	-0.0751	0.2115	879.6099	0.047625	-433.310222	-433.304031	-433.303087	-433.340786	22.077	
O	 0.0978310279	 0.0056127324	 0.0027308458	-0.345293
C	-0.0010992801	 1.1838397537	 0.0095688343	 0.489288
O	-1.1498067604	 1.9185548932	 0.0294877292	-0.217082
N	-0.8337198894	 3.2905463861	 0.0314538467	-0.168802
C	 0.4556721055	 3.318354209	 0.0128305382	 0.292689
O	 1.0420369008	 2.0920561044	-0.0010851804	-0.216883
C	 1.2555653924	 4.4764637998	 0.0069345031	 0.272589
C	 1.949564615	 5.4568235804	 0.0017111944	-0.335513
H	 2.5603068481	 6.327235731	-0.0028532612	 0.229009
134.9435	148.7022	256.679	439.7513	440.8291	577.4517	595.9316	665.931	712.1456	716.2563	772.1833	774.1197	892.7968	940.5589	1006.4243	1143.5874	1349.6024	1624.9872	1960.022	2256.8732	3495.2459
O=C1ON=C(O1)C#C	O=c1onc(o1)C#C	
InChI=1S/C4HNO3/c1-2-3-5-8-4(6)7-3/h1H	InChI=1S/C4HNO3/c1-2-3-5-8-4(6)7-3/h1H
