11
gdb 132036	2.43522	1.86797	1.0571	3.4274	58.13	-0.2464	-0.0495	0.1969	978.6299	0.065295	-537.938492	-537.931644	-537.9307	-537.970158	25.062	
F	 0.0620462658	 0.0542591609	-0.0319285734	-0.014959
C	-0.0615303054	 1.355272467	-0.0466958423	 0.262615
C	-1.2146664934	 2.0273980442	 0.06925963	-0.001165
F	-2.3590952118	 1.379232556	 0.2134282426	-0.028073
C	-1.2077140974	 3.4880723725	 0.0362161927	 0.268898
N	-2.2823562618	 4.1603217602	 0.1432198545	-0.513969
N	 0.0778111233	 4.0684337686	-0.1224606799	-0.302779
C	 1.1005781765	 3.3316663365	-0.2222064143	 0.12598
O	 1.1362084196	 1.965670132	-0.196043384	-0.192549
H	-2.0587459003	 5.1559433321	 0.0958215649	 0.231705
H	 2.1034366247	 3.7260032501	-0.3446705607	 0.164297
103.4525	185.4733	277.505	310.6347	340.6571	505.312	510.9422	513.5933	565.7001	600.6046	699.8187	755.4186	880.3443	905.0739	955.4644	987.8794	1093.9995	1167.3584	1267.5017	1307.7607	1413.7004	1436.3586	1687.8655	1718.1324	1783.2134	3211.2144	3476.2463
FC1=C(F)C(=N)N=CO1	F[C@H]1C(=C([NH])N=CO1)F	
InChI=1S/C4H2F2N2O/c5-2-3(6)9-1-8-4(2)7/h1,7H	InChI=1S/C4H3F2N2O/c5-2-3(6)9-1-8-4(2)7/h1,3,7H/t3-/m1/s1
