11
gdb 21547	3.74454	1.97574	1.29479	4.3073	64.97	-0.2262	-0.0579	0.1683	846.7869	0.071603	-393.52231	-393.515427	-393.514483	-393.553279	25.44	
N	 0.0792014047	 1.3897977013	 0.1647192075	-0.610358
C	-0.0118699123	 0.0239388127	 0.0475734627	 0.160707
C	-1.1019347422	-0.8108572892	 0.0107474624	 0.259397
O	-0.6212099797	-2.0820403458	-0.0409073214	-0.210576
N	 0.763447911	-1.9971366885	-0.0380478855	-0.01831
N	 1.1028541102	-0.7752322575	 0.0129954431	-0.166576
C	-2.4780859391	-0.5644737827	 0.0137132608	 0.236428
C	-3.656857955	-0.3135146033	 0.0120901485	-0.395429
H	 0.9585685099	 1.7673179957	-0.1577812613	 0.27012
H	-0.7206287471	 1.9028617937	-0.1756102464	 0.266598
H	-4.6981109403	-0.1031812564	 0.0182254896	 0.207998
133.4594	163.0278	272.9186	322.0546	358.1207	471.695	522.8181	556.5478	588.4879	612.0603	674.2045	703.6489	744.4012	766.9063	840.1018	1017.6832	1074.1851	1192.5025	1272.5132	1409.7352	1458.1722	1624.2553	1678.6916	2228.143	3498.4956	3570.27	3674.8978
NC1=C(ON=N1)C#C	Nc1c(onn1)C#C	
InChI=1S/C4H3N3O/c1-2-3-4(5)6-7-8-3/h1H,5H2	InChI=1S/C4H3N3O/c1-2-3-4(5)6-7-8-3/h1H,5H2
