11
gdb 21871	4.20165	2.06881	1.38625	1.7033	57.22	-0.2525	-0.089	0.1635	792.2728	0.074741	-426.888694	-426.882642	-426.881698	-426.919066	22.51	
O	-0.0072137493	 1.2822769954	 0.0076017011	-0.368753
C	-0.0547320189	-0.0445259901	 0.0008596008	 0.485739
N	-1.2004495415	-0.6320135886	 0.0039642642	-0.339666
C	-1.1749026619	-2.0165095558	-0.0034753937	 0.44581
N	-2.1483929402	-2.8303939608	-0.0024956912	-0.557209
N	 0.1269862413	-2.5729957082	-0.0134065639	-0.206925
N	 1.2597403707	-1.9066369075	-0.0160330524	-0.009666
N	 1.219364601	-0.6317479875	-0.0091201509	-0.304031
H	 0.9285989608	 1.5322176297	 0.0038615536	 0.321239
H	-3.0237657916	-2.3094136287	 0.0049815697	 0.235749
H	 0.2170894396	-3.580373558	-0.0191864472	 0.297712
121.7725	192.8528	368.6688	425.0796	512.1364	572.4856	577.4774	591.7764	705.5008	733.5704	780.2403	807.9043	853.3657	956.4322	1026.4816	1104.0298	1211.96	1275.8073	1289.2536	1412.7921	1415.7717	1534.8567	1698.5761	1755.3507	3515.3249	3606.5576	3761.3182
OC1=NC(=N)NN=N1	Oc1nc([NH])[nH]nn1	
InChI=1S/C2H3N5O/c3-1-4-2(8)6-7-5-1/h(H3,3,4,5,6,8)	InChI=1S/C2H8N5O/c3-1-4-2(8)6-7-5-1/h1-8H
