11
gdb 132476	3.25575	1.44443	1.00053	3.6409	59.2	-0.2394	-0.0774	0.162	1030.7257	0.064678	-533.831682	-533.824672	-533.823728	-533.86335	26.023	
O	 0.0518907458	 1.3221140549	 0.0076072166	-0.389373
C	-0.051757964	-0.0064697941	 0.0010732931	 0.45941
C	-1.2213488486	-0.6906010753	 0.0041351535	-0.192309
N	-1.205694993	-2.0612186025	-0.0033046195	-0.259629
C	-0.0898562208	-2.6755547979	-0.0130233592	 0.19512
F	-0.0607971632	-3.9981133841	-0.0202385573	-0.044663
C	 1.2337203002	-2.0465039563	-0.0172843341	 0.315434
O	 2.3137529324	-2.5529930824	-0.026191535	-0.303863
O	 1.1331155738	-0.6406820798	-0.0091424202	-0.244998
H	 0.9888198864	 1.5598207414	 0.0034949512	 0.32216
H	-2.1737527491	-0.181609514	 0.0123457896	 0.142712
109.7433	179.5703	317.877	347.7255	349.3226	413.2635	456.1243	486.2256	518.7939	622.5683	687.5812	723.0469	769.7163	788.5375	827.3663	989.8402	1042.8331	1186.7183	1250.2746	1298.0069	1364.5533	1430.912	1620.0908	1705.1799	1873.2659	3240.665	3790.767
OC1=CN=C(F)C(=O)O1	Oc1cnc(F)c(=O)o1	
InChI=1S/C4H2FNO3/c5-3-4(8)9-2(7)1-6-3/h1,7H	InChI=1S/C4H2FNO3/c5-3-4(8)9-2(7)1-6-3/h1,7H
