11
gdb 24844	2.53361	1.87276	1.33686	5.419	58.91	-0.2604	-0.0823	0.178	897.6543	0.065982	-488.715688	-488.708705	-488.707761	-488.747604	24.668	
O	 0.1073588162	 0.4124162356	-1.2061670209	-0.285677
C	 0.0392570311	 1.2590505376	-0.3613921096	 0.309344
N	-1.1641292059	 1.7900381367	 0.1304937936	-0.248842
C	-1.4071098434	 3.0068805895	 0.3485473331	 0.144464
O	-0.6752033459	 4.1211981023	 0.0337281605	-0.180947
C	 0.6539560225	 4.0790967845	-0.2950893542	 0.144458
N	 1.5075951615	 3.1727483316	-0.1024650751	-0.248827
C	 1.2487224702	 1.8750325034	 0.3676220937	 0.309347
O	 1.9078382063	 1.3136933464	 1.1955924865	-0.285673
H	-2.3417472601	 3.3250984563	 0.8021866361	 0.171175
H	 0.9311111377	 5.033966576	-0.7332726537	 0.171178
104.2208	109.2308	245.8429	268.4132	318.8128	444.5531	476.6044	564.6477	680.0793	713.9318	794.4169	823.5494	864.5992	939.2398	971.5424	982.5374	994.8877	1148.042	1184.6802	1412.2837	1429.9838	1677.1332	1759.2898	1827.6464	1849.0449	3188.4025	3189.324
O=C1N=COC=NC1=O	O=c1ncocnc1=O	
InChI=1S/C4H2N2O3/c7-3-4(8)6-2-9-1-5-3/h1-2H	InChI=1S/C4H2N2O3/c7-3-4(8)6-2-9-1-5-3/h1-2H
