11
gdb 21883	7.27624	1.39066	1.16752	3.7219	57.22	-0.2645	-0.0649	0.1996	913.2607	0.073385	-430.733716	-430.727388	-430.726444	-430.764376	22.736	
O	 0.106819371	 1.3169453579	 0.0288920631	-0.410358
C	 0.0699864818	-0.0195686902	 0.037224114	 0.38216
N	 0.1069604948	-0.7698092821	-1.0425890119	-0.322282
N	 0.0459004953	-2.0289357097	-0.5384960332	 0.06853
C	 0.0616312475	-3.1411273994	-1.4035225906	 0.20938
O	 0.0113002522	-4.2777403202	-1.0389809622	-0.249235
N	-0.0272874991	-2.1071928874	 0.7971310782	-0.178531
C	-0.0139001354	-0.8495625388	 1.1903556544	-0.091873
H	 0.1636697929	 1.6122658928	-0.8891274505	 0.317902
H	 0.126621348	-2.7892643894	-2.4454459708	 0.123236
H	-0.0617288092	-0.5735280136	 2.2314567495	 0.15107
112.4185	216.9355	267.9396	353.1479	402.1958	430.3572	532.228	653.3234	729.2372	738.9982	832.6794	879.5694	971.5331	1031.1334	1048.4735	1193.155	1217.1318	1283.6081	1345.281	1419.1935	1454.8231	1527.3533	1623.9182	1853.1816	3025.7902	3275.6877	3793.078
OC1=NN(C=O)N=C1	Oc1nn(C=O)nc1	
InChI=1S/C3H3N3O2/c7-2-6-4-1-3(8)5-6/h1-2H,(H,5,8)	InChI=1S/C3H3N3O2/c7-2-6-4-1-3(8)5-6/h1-2H,(H,5,8)
