10
gdb 130817	8.5759	0.67248	0.62359	1.5514	69.97	-0.2953	-0.1186	0.1767	1589.2342	0.052174	-467.512071	-467.504511	-467.503567	-467.545853	24.814	
O	-0.109206187	-0.0075600758	 0.0000256066	-0.206588
C	-0.0181774923	 1.1960170977	 0.0075577943	 0.014345
C	 1.2439256654	 1.9038361848	-0.000740497	 0.177786
C	 2.2844461712	 2.5156547552	-0.0073991505	 0.063135
C	 3.4904093522	 3.2402672314	-0.0150151321	 0.231914
N	 4.6909270777	 2.7103787114	-0.0307687627	-0.120687
O	 5.5262685641	 3.7523357904	-0.0324374661	-0.130528
N	 4.7721941357	 4.9479515722	-0.0168453165	 0.029981
N	 3.5640375281	 4.6314569193	-0.0064751934	-0.181947
H	-0.9060652851	 1.8568659933	 0.0215768375	 0.12259
47.2203	74.8285	109.1651	206.8426	277.1955	420.0518	516.6413	517.6756	600.1515	673.1541	710.8299	779.8642	964.0115	995.0444	1017.1037	1060.3917	1123.4266	1275.4266	1417.6774	1509.0982	1548.7867	1769.5859	2339.6883	2948.0821
O=CC#CC1=NON=N1	O=CC#Cc1nonn1	
InChI=1S/C4HN3O2/c8-3-1-2-4-5-7-9-6-4/h3H	InChI=1S/C4HN3O2/c8-3-1-2-4-5-7-9-6-4/h3H
