11
gdb 131327	5.69527	1.41061	1.13058	3.1438	57.58	-0.245	-0.0333	0.2117	944.045	0.068939	-484.8585	-484.852553	-484.851609	-484.888883	22.595	
O	 0.0770311402	 1.2272182549	-0.126357626	-0.392056
C	 0.0677292333	-0.1030787331	-0.058274685	 0.431653
N	 0.0017887133	-0.8350268848	-1.1716986554	-0.327151
N	 0.0190565268	-2.0750287604	-0.6097061464	 0.089037
N	-0.0174028855	-3.3645461	-1.0499887013	-0.204196
C	 0.0346189406	-4.0242573649	 0.0619919428	 0.072632
O	 0.1038117974	-3.2544366077	 1.2057095098	-0.200822
C	 0.0909086781	-1.9966953811	 0.7221207607	 0.497265
N	 0.1259746404	-0.7588193605	 1.1540180719	-0.474094
H	 0.1291370567	 1.5559527799	 0.7796011302	 0.318913
H	 0.0302896085	-5.0928529222	 0.1857956288	 0.18882
147.9269	318.7471	352.8237	360.7128	405.6668	583.8737	617.9369	630.7695	724.5179	758.9927	794.314	797.9599	886.4779	955.0306	1011.4474	1073.0988	1161.7679	1201.337	1292.6585	1361.8038	1418.834	1467.1579	1558.5573	1600.2378	1647.3931	3318.517	3811.9917
OC1=NN2N=COC2=N1	Oc1nn2ncoc2n1	
InChI=1S/C3H2N4O2/c8-2-5-3-7(6-2)4-1-9-3/h1H,(H,6,8)	InChI=1S/C3H2N4O2/c8-2-5-3-7(6-2)4-1-9-3/h1H,(H,6,8)
