11
gdb 5482	3.71962	1.92532	1.26865	3.8275	57.38	-0.2499	-0.0613	0.1886	850.1556	0.072904	-434.578414	-434.571998	-434.571053	-434.609257	22.908	
O	 0.1151081716	 1.3533717049	 0.0068795678	-0.402134
C	 0.0772680909	 0.0214515046	-0.0342662621	 0.292882
C	 0.0208354148	-0.7816607715	-1.1498981732	 0.149555
O	-0.000151663	-2.0821592936	-0.6723532996	-0.152256
C	 0.0439023285	-1.9634185726	 0.6520937832	 0.100232
N	 0.0914043903	-0.7425644262	 1.1049018432	-0.341006
C	-0.0153238083	-0.5081255053	-2.5671918323	 0.060992
O	-0.065293649	-1.3438331348	-3.443999182	-0.29035
H	 0.1509182803	 1.6133132157	 0.9370018992	 0.318662
H	 0.036709521	-2.8746126602	 1.2305363597	 0.171206
H	 0.0078012429	 0.580368409	-2.7867022038	 0.092217
140.7238	167.3112	246.7885	359.1461	361.9753	433.5992	571.6245	644.986	675.1422	749.3477	814.6172	881.7669	953.0131	1020.3611	1075.2708	1208.3743	1219.3642	1309.8272	1327.4034	1404.0294	1459.8385	1543.4927	1683.0171	1779.3185	2908.0213	3274.3471	3788.2807
OC1=C(OC=N1)C=O	Oc1c(ocn1)C=O	
InChI=1S/C4H3NO3/c6-1-3-4(7)5-2-8-3/h1-2,7H	InChI=1S/C4H3NO3/c6-1-3-4(7)5-2-8-3/h1-2,7H
