10
gdb 123321	6.67302	0.96032	0.8395	3.1634	70.29	-0.2965	-0.0994	0.1971	1223.3754	0.053736	-430.427929	-430.420805	-430.41986	-430.459881	25.244	
C	 0.0258747962	-1.1754992962	-0.0031760552	-0.329863
C	 0.0010958203	 0.0250612584	 0.0032223732	 0.259189
C	-0.0200761658	 1.4396845435	 0.0106490409	 0.184619
N	-1.1447656242	 2.1299442834	 0.0299641279	-0.138268
O	-0.7249131704	 3.4473004517	 0.0306801552	-0.173479
C	 0.6186975359	 3.414340435	 0.0115354024	 0.337026
N	 1.1204887515	 2.2195035219	-0.0015249936	-0.323052
C	 1.3162652198	 4.6537747921	 0.0079301409	 0.26306
N	 1.8755448852	 5.6647967217	 0.0051266814	-0.296502
H	 0.0478421015	-2.2383481815	-0.008840043	 0.217271
112.5841	119.4516	206.2434	214.1567	433.1859	485.2902	497.6355	526.1703	592.2348	666.1922	686.7946	695.2459	732.5567	779.133	954.6774	1019.6493	1058.245	1264.1845	1333.3776	1492.5101	1588.5951	2259.0818	2373.3439	3496.6574
C#CC1=NOC(=N1)C#N	C#Cc1noc(n1)C#N	
InChI=1S/C5HN3O/c1-2-4-7-5(3-6)9-8-4/h1H	InChI=1S/C5HN3O/c1-2-4-7-5(3-6)9-8-4/h1H
