11
gdb 8610	2.15724	2.10984	1.51364	3.898	61.33	-0.3054	-0.0387	0.2668	866.6199	0.070213	-356.39599	-356.3878	-356.386856	-356.428422	28.681	
N	-0.0588272101	 1.48373229	 0.057589712	-0.495936
C	 0.0030503102	 0.0176812643	 0.0162996438	-0.25013
C	 0.7077125752	-0.4831392751	 1.2044274125	 0.388096
C	 1.3010908966	-0.8810185019	 2.16662747	-0.41326
C	-1.388986122	-0.5017079264	 0.0047757594	 0.34755
N	-2.4730295013	-0.8958242201	-0.0165924048	-0.311723
C	 0.694841017	-0.4974558381	-1.2039603622	 0.296601
N	 1.2496491074	-0.8191536915	-2.1646777372	-0.317228
H	 0.8861298409	 1.8516591125	 0.1195938385	 0.262689
H	-0.4787472599	 1.833627325	-0.7996259502	 0.263685
H	 1.8210266161	-1.2382739288	 3.0225496383	 0.229658
121.0344	127.2776	155.4313	220.5773	233.6021	282.903	354.0879	489.5804	509.982	550.9427	571.9856	585.7245	678.5419	683.551	693.1682	853.2544	1001.1813	1023.0792	1147.7499	1327.7367	1647.0408	2257.5199	2353.4727	2375.9732	3493.1997	3495.7084	3585.7377
NC(C#C)(C#N)C#N	NC(C#C)(C#N)C#N	
InChI=1S/C5H3N3/c1-2-5(8,3-6)4-7/h1H,8H2	InChI=1S/C5H3N3/c1-2-5(8,3-6)4-7/h1H,8H2
