11
gdb 23981	6.57759	0.9041	0.79485	1.5123	73.45	-0.2787	-0.0746	0.2042	1280.0164	0.067466	-414.459614	-414.452563	-414.451619	-414.49157	25.152	
N	 0.1453122111	-1.1367469262	-0.0052955677	-0.317987
C	 0.0426881733	 0.0164144336	 0.0024007921	 0.240116
C	-0.1068322931	 1.4199516106	 0.0119086524	 0.3011
C	-1.2096364648	 2.2210703115	 0.0311139676	-0.392778
C	-0.7156217686	 3.5661743055	 0.0317981156	 0.162178
C	 0.6519393793	 3.4666137837	 0.0122727142	-0.083514
O	 1.033048841	 2.1820061409	 0.00030589	-0.155441
C	-1.4756259091	 4.7626565143	 0.0487408395	 0.208946
N	-2.1013107247	 5.7358682815	 0.0625900123	-0.31976
H	-2.239333424	 1.9044032159	 0.0434462879	 0.170176
H	 1.4365261698	 4.2049882787	 0.0054125561	 0.186964
109.1341	120.7687	208.7272	219.0802	475.5649	477.8691	526.5863	532.8055	593.6279	650.9293	660.756	686.1627	820.3611	871.7778	957.0676	999.2839	1157.0328	1200.8101	1230.3393	1305.6613	1367.6881	1538.2942	1618.0091	2352.0485	2360.1134	3284.8904	3288.8194
N#CC1=CC(=CO1)C#N	N#Cc1cc(co1)C#N	
InChI=1S/C6H2N2O/c7-2-5-1-6(3-8)9-4-5/h1,4H	InChI=1S/C6H2N2O/c7-2-5-1-6(3-8)9-4-5/h1,4H
