11
gdb 21787	7.44094	1.32475	1.12454	1.5779	57.	-0.2469	-0.0832	0.1637	939.1051	0.073335	-430.762552	-430.755949	-430.755005	-430.79356	23.43	
O	-0.0637471524	-0.0226282261	-0.0019276839	-0.232959
C	 0.0180213432	 1.1785643443	 0.0066993678	 0.101023
C	 1.2835445723	 1.932742257	-0.0008445311	 0.299916
N	 2.4780633275	 1.4047159392	-0.018014952	-0.213932
N	 3.317557914	 2.4671175086	-0.018424472	-0.272926
C	 2.6860684533	 3.7093349366	-0.0017005652	 0.46878
O	 3.1656891076	 4.8166888493	 0.0021338722	-0.403067
N	 1.3475950291	 3.3120831984	 0.0094987225	-0.409457
H	-0.8839627169	 1.8309212949	 0.021506776	 0.081655
H	 4.3139328944	 2.3242808021	-0.0303625662	 0.294752
H	 0.581794158	 3.9641209559	 0.0233074719	 0.286213
107.6294	192.6696	200.0207	311.0892	418.1163	468.9202	526.3897	529.3605	698.0082	746.8326	754.8131	801.517	1000.9131	1015.5517	1019.6464	1105.8504	1228.8593	1277.1238	1389.6047	1413.1424	1484.2882	1575.9447	1817.2352	1872.8863	2880.1704	3673.9708	3679.7486
O=CC1=NNC(=O)N1	O=Cc1n[nH]c(=O)[nH]1	
InChI=1S/C3H3N3O2/c7-1-2-4-3(8)6-5-2/h1H,(H2,4,5,6,8)	InChI=1S/C3H3N3O2/c7-1-2-4-3(8)6-5-2/h1H,(H2,4,5,6,8)
