10
gdb 130853	2.38212	1.59073	0.9538	0.9516	64.01	-0.2963	-0.1254	0.1709	1076.5378	0.052823	-467.585588	-467.578295	-467.577351	-467.617978	25.007	
O	-0.0097629607	-0.0499877497	-0.002196101	-0.229687
C	-0.0005449392	 1.1536005252	 0.0083506635	 0.075633
C	 1.2317002783	 1.9612451115	 0.0018409075	 0.053858
C	 1.3907820307	 3.3258965699	 0.0123614267	 0.320908
O	 2.6806922082	 3.626804365	 0.0002718671	-0.221452
N	 3.3725224531	 2.3345436656	-0.0190095473	 0.027817
N	 2.5103158368	 1.4400518851	-0.0167407906	-0.109007
C	 0.4318289565	 4.3663754161	 0.0322975107	 0.270635
N	-0.3744048848	 5.1957872659	 0.0486043332	-0.301519
H	-0.9304017288	 1.7578758152	 0.0240690402	 0.112816
116.9467	126.2184	172.9569	224.3399	279.226	431.0549	478.2555	480.4218	567.6615	640.1467	686.3774	754.7066	795.5894	991.8016	1029.966	1146.9619	1263.3986	1380.8372	1426.056	1515.6139	1576.4681	1811.5378	2360.0758	2930.1418
O=CC1=C(ON=N1)C#N	O=Cc1c(onn1)C#N	
InChI=1S/C4HN3O2/c5-1-4-3(2-8)6-7-9-4/h2H	InChI=1S/C4HN3O2/c5-1-4-3(2-8)6-7-9-4/h2H
