11
gdb 23780	3.37127	2.37874	1.39467	3.5703	56.95	-0.245	-0.0413	0.2037	776.9825	0.073317	-438.697132	-438.691135	-438.690191	-438.727484	22.241	
F	 0.0114657286	 0.0493063647	 0.1572072281	-0.041228
C	-0.0041102904	 1.3673676661	 0.0420674511	 0.180039
C	-1.1684778292	 2.0209706554	-0.0419303076	-0.071458
O	-1.2112949501	 3.3851057898	-0.1617281229	-0.177747
C	-0.0133156732	 4.0151876832	-0.1887636997	 0.131207
N	 1.1391960477	 3.4890171182	-0.1161386467	-0.310704
C	 1.2697325869	 2.0847320912	 0.0092252277	 0.26144
N	 2.384315293	 1.4744490209	 0.0882942198	-0.514356
H	-2.1453957733	 1.560448372	-0.0245453085	 0.159811
H	-0.1527517413	 5.0875626119	-0.2854081184	 0.154011
H	 3.1404110414	 2.1613706666	 0.046043237	 0.228983
111.522	306.2244	313.8349	394.8413	473.5492	524.2169	526.9869	598.0834	759.1461	781.4376	869.8755	904.4998	916.6537	968.1911	1003.4906	1075.4684	1203.1434	1272.1589	1312.5068	1405.8056	1438.6372	1671.1027	1704.3057	1735.0706	3196.7325	3250.8433	3464.1292
FC1=COC=NC1=N	FC1=C(N=COC1)[NH]	
InChI=1S/C4H3FN2O/c5-3-1-8-2-7-4(3)6/h1-2,6H	InChI=1S/C4H4FN2O/c5-3-1-8-2-7-4(3)6/h2,6H,1H2
