11
gdb 123315	5.87597	0.99997	0.85454	3.3744	80.42	-0.26	-0.071	0.189	1230.1082	0.064244	-414.344585	-414.337131	-414.336187	-414.376717	27.178	
C	 0.1811151543	-1.1280023867	-0.005481081	-0.327734
C	 0.0636515051	 0.0681852016	 0.0024040234	 0.215499
C	-0.0809964271	 1.4672064393	 0.0117364916	 0.244509
N	-1.1794831122	 2.1707650871	 0.0314686852	-0.257308
N	-0.7969202204	 3.4946881714	 0.032936232	-0.257323
C	 0.5075406261	 3.5039709272	 0.0141013243	 0.244544
O	 1.0331899709	 2.2486850211	 0.0001171209	-0.17642
C	 1.3760977803	 4.6102433147	 0.0075773208	 0.21544
C	 2.1132331701	 5.5596254604	 0.0021038538	-0.327727
H	 0.2804213472	-2.1861520049	-0.0123942705	 0.21326
H	 2.7613821956	 6.4019266489	-0.0026750405	 0.213261
115.378	117.3761	195.8768	203.8305	409.7401	466.5223	483.7773	547.8016	585.6937	635.3109	636.4976	681.8164	702.9415	703.6231	740.0987	759.0964	1000.2233	1012.5764	1091.6807	1206.5032	1344.1981	1528.7702	1532.6012	2250.0342	2251.359	3498.0898	3498.6125
C#CC1=NN=C(O1)C#C	C#Cc1nnc(o1)C#C	
InChI=1S/C6H2N2O/c1-3-5-7-8-6(4-2)9-5/h1-2H	InChI=1S/C6H2N2O/c1-3-5-7-8-6(4-2)9-5/h1-2H
