10
gdb 133441	3.13779	1.47298	1.00242	0.5517	54.49	-0.2764	-0.1067	0.1697	1005.1538	0.052432	-553.959825	-553.953099	-553.952155	-553.991609	24.397	
F	 0.0351329883	 0.1161418022	-0.3184230578	-0.033858
C	-0.0320745235	 1.3929200047	-0.0269811256	 0.404108
N	-1.2067589526	 1.8669892556	 0.1602943085	-0.151991
O	-1.2422059931	 3.2366383742	 0.4710246362	-0.27288
C	-0.1050291702	 3.9993498257	 0.5648224301	 0.319778
N	-0.1090618975	 5.2313534027	 0.8424199089	-0.498717
C	 1.1381306546	 3.2531040247	 0.3117574235	 0.318994
F	 2.2398105655	 3.9407895274	 0.3910917406	 0.003835
N	 1.1914993536	 2.0146649668	 0.0293116357	-0.340809
H	-1.0594579652	 5.5779847661	 0.9855245699	 0.25154
73.1006	205.4478	323.7624	330.8163	375.1839	418.815	490.875	542.8186	600.2026	699.5294	708.2486	782.4666	824.9955	890.1663	952.3522	1041.6262	1099.8845	1243.7602	1381.5638	1448.8731	1646.4779	1709.2425	1741.308	3483.6472
FC1=NOC(=N)C(F)=N1	FC1=NOC(=C(F)[N]1)[NH]	
InChI=1S/C3HF2N3O/c4-1-2(6)9-8-3(5)7-1/h6H	InChI=1S/C3HF2N3O/c4-1-2(6)9-8-3(5)7-1/h6H
