11
gdb 130813	8.65371	0.6764	0.62737	3.2337	74.24	-0.2801	-0.094	0.186	1599.0894	0.066432	-447.67926	-447.671748	-447.670804	-447.712884	24.877	
O	-0.1029466634	-0.0077926383	 0.000940666	-0.218078
C	-0.0021277155	 1.196616498	 0.0078147557	 0.007469
C	 1.2558271511	 1.9028574052	-0.0009403135	 0.172495
C	 2.2937008006	 2.5204843401	-0.0078607041	 0.061003
C	 3.4973149991	 3.2543701114	-0.0157910361	 0.205369
N	 4.7135546573	 2.6981350097	-0.0315562706	-0.229854
N	 5.477151807	 3.7711934088	-0.0326841319	-0.097308
N	 4.8228223445	 4.9307102851	-0.0172502402	-0.087286
N	 3.5600694177	 4.6220062853	-0.0054527019	-0.240074
H	-0.8895209077	 1.8596234073	 0.0217463878	 0.113912
H	 6.4863412893	 3.7223219574	-0.0437881511	 0.312352
53.2079	74.9865	111.5405	208.122	274.1427	421.8616	523.6819	529.873	612.699	713.6045	735.3065	793.5247	988.9271	1018.8051	1038.6839	1077.0561	1097.1875	1221.4258	1266.1224	1315.2749	1419.1179	1474.2334	1517.4051	1765.7898	2335.428	2936.3415	3636.138
O=CC#CC1=NNN=N1	O=CC#Cc1n[nH]nn1	
InChI=1S/C4H2N4O/c9-3-1-2-4-5-7-8-6-4/h3H,(H,5,6,7,8)	InChI=1S/C4H2N4O/c9-3-1-2-4-5-7-8-6-4/h3H,(H,5,6,7,8)
