10
gdb 23835	3.43103	2.4712	1.43654	1.0485	53.37	-0.2732	-0.0961	0.1771	747.6879	0.060354	-454.713207	-454.707207	-454.706263	-454.743747	21.672	
F	 0.05033747	 0.0894147541	 0.1856302537	-0.007308
C	-0.0214672081	 1.3872711334	 0.058689914	 0.31984
N	-1.1567195152	 1.947127239	-0.0423390174	-0.30215
C	-1.1169933629	 3.3280185788	-0.1730112002	 0.103997
N	-0.0890087622	 4.0964658789	-0.203791783	-0.062236
O	 1.1528612893	 3.45957562	-0.0911253576	-0.272854
C	 1.2686829684	 2.0939281272	 0.0445790256	 0.308789
N	 2.3779100188	 1.4994234065	 0.1476921954	-0.499108
H	-2.0705975781	 3.8365453637	-0.2614413148	 0.163738
H	 3.15554344	 2.1618877284	 0.1165659542	 0.247293
89.3924	232.9651	324.0345	419.7704	505.621	544.9877	559.8584	596.7873	749.6429	785.6215	890.1446	900.8936	943.4776	960.6605	1038.2547	1176.328	1249.0737	1351.6807	1419.8094	1615.9986	1704.7115	1744.1306	3210.3237	3478.355
FC1=NC=NOC1=N	FC1=C(ON=C[N]1)[NH]	
InChI=1S/C3H2FN3O/c4-2-3(5)8-7-1-6-2/h1,5H	InChI=1S/C3H2FN3O/c4-2-3(5)8-7-1-6-2/h1,5H
