11
gdb 130732	3.14973	1.60176	1.23652	2.4902	60.82	-0.275	-0.1137	0.1612	928.1293	0.065952	-484.842697	-484.835776	-484.834832	-484.874415	25.041	
O	 0.0450922481	 0.094072209	-0.5974141146	-0.316828
C	 0.0659978835	 1.2420235108	-0.2229303328	 0.400306
N	-1.125457793	 1.986431625	-0.1365676574	-0.290977
N	-1.4468799676	 3.1085924118	 0.6320330907	-0.03513
N	-0.6521442558	 4.0555340847	 0.7195646819	-0.131428
C	 0.5471279679	 4.0538281131	-0.1049364586	 0.396325
O	 0.6699799053	 4.8529865034	-0.9835174354	-0.259598
N	 1.5357880645	 3.1593402849	 0.3117236732	-0.177568
C	 1.3219605103	 1.9088035969	 0.2501189366	-0.046143
H	-1.9454845482	 1.402103802	-0.2563843595	 0.28717
H	 2.1049863748	 1.2126458985	 0.5491404958	 0.173871
92.2706	144.5584	260.4279	316.1041	352.6708	442.415	477.8279	596.2915	635.7363	692.6222	705.7991	738.3292	797.5605	908.5917	938.3286	975.7013	995.5072	1104.7363	1265.5436	1369.0052	1423.908	1621.4594	1717.9931	1794.3133	1856.3348	3151.9862	3573.5104
O=C1NN=NC(=O)N=C1	O=c1[nH]nnc(=O)nc1	
InChI=1S/C3H2N4O2/c8-2-1-4-3(9)6-7-5-2/h1H,(H,5,6,8,9)	InChI=1S/C3H2N4O2/c8-2-1-4-3(9)6-7-5-2/h1H,(H,5,6,8,9)
