11
gdb 25325	2.3833	1.58908	0.9534	3.0425	67.5	-0.281	-0.1036	0.1774	1091.4877	0.066428	-451.587395	-451.580239	-451.579295	-451.619683	24.807	
O	-0.0056701383	-0.0795010203	-0.0033693008	-0.232412
C	 0.0081676409	 1.1244648985	 0.0074291912	 0.075761
C	 1.2425340975	 1.9334497789	 0.0011553884	 0.068386
C	 1.337841122	 3.303324992	 0.0125633203	 0.222182
O	 2.660393483	 3.633382114	 0.0006852315	-0.168861
C	 3.2973525237	 2.4356550942	-0.0168058894	 0.085443
N	 2.5226753186	 1.4044560522	-0.0175705811	-0.270309
C	 0.376968525	 4.3344280779	 0.0323338023	 0.252185
N	-0.435086019	 5.1599642049	 0.0485369739	-0.318563
H	-0.9229952577	 1.7281561848	 0.0230286892	 0.104017
H	 4.3757572644	 2.4684762527	-0.0283864055	 0.18217
121.6075	122.9353	169.0696	229.349	282.5754	442.2164	498.6312	568.759	609.2431	661.7985	734.7354	806.8951	879.2466	951.0186	1031.4087	1075.3557	1117.1359	1251.206	1305.3244	1373.8489	1426.8362	1548.6942	1587.2804	1812.134	2348.2081	2920.7892	3282.3575
O=CC1=C(OC=N1)C#N	O=Cc1c(ocn1)C#N	
InChI=1S/C5H2N2O2/c6-1-5-4(2-8)7-3-9-5/h2-3H	InChI=1S/C5H2N2O2/c6-1-5-4(2-8)7-3-9-5/h2-3H
