10
gdb 21819	3.8241	2.07244	1.34405	3.0687	50.97	-0.2861	-0.0755	0.2106	795.4999	0.061061	-446.785626	-446.779307	-446.778362	-446.816433	21.959	
O	-0.0437671944	-0.0623016769	-0.000504688	-0.24911
C	-0.012545077	 1.1320608424	 0.0075816522	 0.193613
N	 1.1748786988	 1.890720039	 0.0002017791	-0.140478
N	 2.4360787399	 1.3367221227	-0.0174544713	-0.078375
N	 3.2747438384	 2.2818761566	-0.0195361115	-0.030309
N	 2.6077603246	 3.4668586732	-0.0035653848	-0.315635
C	 1.2363056027	 3.2980592765	 0.0096655048	 0.554017
O	 0.3407241941	 4.1034770214	 0.0254066164	-0.384871
H	-0.8827915411	 1.8073345553	 0.0220833689	 0.146314
H	 3.115243314	 4.3363356499	-0.0023821458	 0.304832
130.6254	199.0062	213.7122	274.4868	391.0129	495.492	612.2061	702.2546	708.3933	757.0842	821.5906	985.4693	1038.4025	1040.4924	1166.424	1196.1451	1337.8906	1366.8863	1421.7043	1514.7115	1847.9148	1874.4418	3029.7128	3676.4318
O=CN1N=NNC1=O	O=Cn1nn[nH]c1=O	
InChI=1S/C2H2N4O2/c7-1-6-2(8)3-4-5-6/h1H,(H,3,5,8)	InChI=1S/C2H2N4O2/c7-1-6-2(8)3-4-5-6/h1H,(H,3,5,8)
