11
gdb 23903	4.76814	0.85562	0.83555	3.8806	48.37	-0.2834	-0.0077	0.2757	1295.8205	0.066669	-528.85574	-528.847473	-528.846529	-528.890587	27.172	
O	-0.0125431198	 1.4559069495	 0.0110920829	-0.403003
C	 0.0066092329	 0.0386691128	 0.0018394306	-0.221579
C	-1.3636203338	-0.461854723	 0.0123796967	 0.172507
C	-2.480839245	-0.9001783562	 0.0207845428	-0.168737
C	-3.8415556155	-1.429507755	 0.0310606507	 0.266533
F	-3.8362626093	-2.7701760074	 0.0246246289	-0.072058
F	-4.5139711567	-1.0327017388	 1.1193589238	-0.068644
F	-4.5343031371	-1.0224361054	-1.0405683826	-0.068651
H	 0.9015535971	 1.7578744451	 0.0041439073	 0.29819
H	 0.5148500394	-0.3586284009	-0.8914659427	 0.13272
H	 0.5326034478	-0.3699510509	 0.8796228416	 0.132721
22.6789	85.7569	105.1088	207.3731	210.7264	315.4682	399.4778	458.6568	458.9776	586.9312	612.8571	630.7106	764.8753	997.6803	1024.5267	1079.2328	1182.5343	1185.2963	1244.3964	1247.3759	1297.85	1461.5511	1498.7844	2396.2692	2972.3131	2994.3957	3822.5653
OCC#CC(F)(F)F	OCC#CC(F)(F)F	
InChI=1S/C4H3F3O/c5-4(6,7)2-1-3-8/h8H,3H2	InChI=1S/C4H3F3O/c5-4(6,7)2-1-3-8/h8H,3H2
