11
gdb 5465	3.70704	1.99981	1.30004	3.7276	61.55	-0.2309	-0.0412	0.1896	837.4353	0.074322	-393.625687	-393.619132	-393.618188	-393.656472	23.879	
N	 0.095319769	 1.3874575953	 0.1744463751	-0.596032
C	-0.0016179123	 0.0329526409	 0.0616267826	 0.228401
C	-1.1147136766	-0.7776598155	 0.0195805333	 0.179685
O	-0.6583619918	-2.0894811318	-0.0331085775	-0.173154
C	 0.6710690917	-1.9720791606	-0.0239247655	 0.087456
N	 1.1299405832	-0.759692125	 0.0296081014	-0.294841
C	-2.4863948489	-0.5068595663	 0.0151245784	 0.202887
N	-3.6126131142	-0.2235026332	 0.0089885912	-0.350293
H	 0.9838128649	 1.7775350165	-0.0984218495	 0.273138
H	-0.7110270591	 1.9339424703	-0.0839223366	 0.275119
H	 1.2415514043	-2.8874245206	-0.0626588628	 0.167635
139.1506	154.8099	300.5273	356.8851	395.9259	472.3094	522.8213	548.4063	609.7388	634.8494	746.5092	758.552	874.8423	954.0327	1028.2519	1145.0142	1201.4319	1277.2281	1324.6713	1435.3414	1548.2002	1621.2652	1682.2456	2321.086	3275.0644	3590.8164	3703.6444
NC1=C(OC=N1)C#N	Nc1c(ocn1)C#N	
InChI=1S/C4H3N3O/c5-1-3-4(6)7-2-8-3/h2H,6H2	InChI=1S/C4H3N3O/c5-1-3-4(6)7-2-8-3/h2H,6H2
