11
gdb 129326	2.65095	1.92339	1.29927	3.5948	62.66	-0.2853	-0.131	0.1543	894.9756	0.063623	-484.793575	-484.78625	-484.785305	-484.825669	26.326	
N	-0.1131859328	 1.3984278411	 0.112277358	-0.452953
C	-0.0747441615	 0.1965844162	-0.2517441728	 0.332463
O	 0.962542405	-0.3485856455	-0.9718078245	-0.2906
N	 1.3816970502	-1.7844302883	-0.6190913691	 0.030585
N	 0.6017608197	-2.645157653	-0.9496249842	-0.022228
C	-0.6823571317	-2.384854371	-1.5387460429	 0.090598
N	-1.5432045803	-1.5904314705	-1.0775178205	-0.172411
C	-1.250883092	-0.7360299224	 0.0125968912	 0.31164
O	-1.9056560038	-0.7182580921	 1.0145591919	-0.254292
H	 0.757898925	 1.8839639039	-0.1138479917	 0.250249
H	-0.8881029678	-3.0357106686	-2.3854169054	 0.176949
74.1162	151.675	251.3585	284.1429	312.8128	354.0914	447.7106	499.418	590.258	620.1055	684.2041	744.4421	833.8822	860.4381	912.9361	935.4249	968.9745	1000.6829	1108.6486	1271.617	1377.7027	1673.3409	1734.373	1750.0209	1838.5915	3172.6496	3473.5719
N=C1ON=NC=NC1=O	[NH][C]1ON=NC=NC1=O	
InChI=1S/C3H2N4O2/c4-2-3(8)5-1-6-7-9-2/h1,4H	InChI=1S/C3H2N4O2/c4-2-3(8)5-1-6-7-9-2/h1,4H
