10
gdb 133412	3.28084	1.3759	0.96937	2.4266	53.29	-0.2778	-0.0821	0.1957	1027.2099	0.05203	-557.793085	-557.786392	-557.785447	-557.82464	24.453	
F	 0.057102938	 0.0619397018	 0.0021614202	-0.01639
C	-0.0570211886	 1.3629830715	 0.0111480085	 0.453976
C	-1.237099693	 2.0109973689	 0.0308115775	-0.463791
C	-1.2169328331	 3.4541720677	 0.039204879	 0.310666
O	-2.165016088	 4.2110182935	 0.0549135884	-0.34021
C	 0.1923214497	 3.9666565846	 0.0222176068	 0.255721
F	 0.3289954116	 5.2685602939	 0.026992801	-0.01428
N	 1.2875328521	 3.3019316077	 0.0036588871	-0.1102
O	 1.1540134483	 1.9115968453	-0.0021060446	-0.234401
H	-2.167571707	 1.4614353752	 0.040048056	 0.15891
111.4029	182.3309	311.5805	368.1539	375.1038	443.6986	452.9032	515.6426	624.6917	679.0907	700.9065	774.2484	792.6757	857.0132	972.7126	1035.8598	1204.5139	1266.3852	1376.9357	1428.3412	1650.686	1685.8001	1785.4662	3242.2758
FC1=CC(=O)C(F)=NO1	Fc1cc(=O)c(F)no1	
InChI=1S/C4HF2NO2/c5-3-1-2(8)4(6)7-9-3/h1H	InChI=1S/C4HF2NO2/c5-3-1-2(8)4(6)7-9-3/h1H
