11
gdb 21391	5.8327	2.32017	1.65989	3.951	56.25	-0.2344	-0.0237	0.2108	681.1339	0.076194	-389.754143	-389.748837	-389.747893	-389.783411	20.161	
N	 0.0304505561	 1.3339814024	 0.0559399117	-0.356717
N	 1.3068193614	 1.8246635878	 0.0311007202	-0.187454
C	 2.0911903978	 0.7845772457	-0.0077016518	 0.018494
N	 1.3576896162	-0.3866078133	-0.0088733166	-0.05321
C	 1.3124246565	-1.7675014904	-0.0317573218	-0.017379
N	 0.062035458	-2.1591962273	-0.0057174783	-0.206131
N	-0.7812902006	-1.0582905582	 0.0355949127	-0.353635
C	 0.028778359	-0.0279735384	 0.0322464131	 0.533061
H	-0.7502759924	 1.9640433526	 0.0878431798	 0.297448
H	 3.1660498193	 0.8364353526	-0.035032969	 0.171502
H	 2.1809807887	-2.4025876635	-0.0656571001	 0.15402
213.4181	290.5412	374.4832	479.8348	650.9411	654.5557	717.8048	746.0892	766.94	804.0725	806.9376	965.9276	997.6171	1028.2434	1087.2107	1225.1862	1235.8693	1262.997	1360.6508	1392.9978	1405.9086	1465.4072	1567.998	1646.3645	3291.5063	3295.6752	3710.209
N1N=CN2C=NN=C12	[nH]1ncn2cnnc12	
InChI=1S/C3H3N5/c1-4-6-3-7-5-2-8(1)3/h1-2H,(H,6,7)	InChI=1S/C3H3N5/c1-4-6-3-7-5-2-8(1)3/h1-2H,(H,6,7)
