11
gdb 21680	5.85037	1.67806	1.30589	6.682	56.42	-0.2575	-0.1022	0.1553	837.7801	0.072494	-430.71064	-430.704101	-430.703157	-430.74176	23.9	
N	 0.038056456	 1.4001729198	 0.1422421269	-0.561313
C	-0.0142975095	 0.0263774061	 0.0303130989	 0.380975
N	-1.1647938178	-0.5646714516	 0.0132826346	-0.145651
O	-1.1321859415	-1.9560373748	 0.0149983596	-0.241513
C	 0.0365212973	-2.699193831	-0.0239006796	 0.480189
O	-0.0552715537	-3.8899187804	-0.0453599141	-0.318724
N	 1.2629345309	-2.0101113225	-0.0326406344	-0.281857
C	 1.2262668951	-0.7318390537	 0.001320805	 0.006138
H	 0.7877167763	 1.855455084	-0.3578922864	 0.267127
H	-0.8558488638	 1.8574679911	 0.0215351259	 0.274195
H	 2.1733780406	-0.1874626669	 0.0094850837	 0.140435
51.9961	282.7106	310.5044	342.446	374.7805	500.891	521.0519	546.8079	633.9429	650.8969	772.8086	803.582	836.2186	922.9072	987.8124	1032.82	1086.0949	1184.6207	1356.6236	1467.0169	1603.5848	1643.6328	1712.9047	1862.5137	3106.913	3559.2951	3665.836
NC1=NOC(=O)N=C1	Nc1noc(=O)nc1	
InChI=1S/C3H3N3O2/c4-2-1-5-3(7)8-6-2/h1H,(H2,4,6)	InChI=1S/C3H3N3O2/c4-2-1-5-3(7)8-6-2/h1H,(H2,4,6)
