11
gdb 130828	4.64587	1.08323	0.87842	4.3961	58.35	-0.2666	-0.1204	0.1462	1171.7732	0.064768	-488.677143	-488.669727	-488.668783	-488.710509	24.773	
O	-0.0628532086	 0.0185565047	 0.0020183825	-0.203875
C	-0.0274972169	 1.216821315	 0.0085795119	 0.085372
C	 1.3307149174	 1.9643287838	-0.0006699275	 0.210634
O	 2.3753561621	 1.3699843654	-0.0145144341	-0.240857
C	 1.2695925339	 3.4571724611	 0.0084631864	 0.281124
N	 0.1240184293	 4.0985915095	 0.0238066251	-0.142
O	 0.4958389557	 5.4324034985	 0.0274746933	-0.1456
C	 1.8380008724	 5.4449260109	 0.0141964268	 0.11909
N	 2.3804823862	 4.2733024959	 0.0020844574	-0.280865
H	-0.9349214789	 1.8501904761	 0.0212982459	 0.130503
H	 2.3176398774	 6.4124418793	 0.0148969223	 0.186475
51.6241	75.59	159.4812	200.0564	294.6894	388.1692	483.7435	549.8874	639.2441	761.4914	833.2353	912.3212	940.7339	960.0448	986.0196	1012.7181	1032.3317	1114.1847	1299.4441	1373.9144	1414.5018	1487.3595	1573.0244	1808.8396	1841.2029	2960.9125	3275.0067
O=CC(=O)C1=NOC=N1	O=CC(=O)c1nocn1	
InChI=1S/C4H2N2O3/c7-1-3(8)4-5-2-9-6-4/h1-2H	InChI=1S/C4H2N2O3/c7-1-3(8)4-5-2-9-6-4/h1-2H
