11
gdb 23676	3.76214	1.90712	1.26557	3.3585	54.92	-0.26	-0.0357	0.2243	827.2788	0.072805	-446.720144	-446.714459	-446.713515	-446.75014	21.651	
F	 0.031222854	 0.0590440326	 0.0029978693	-0.065394
C	-0.0146407433	 1.3846698102	 0.0105746562	 0.355453
C	-1.2532112342	 2.0140938062	 0.0308286172	-0.273658
C	-1.2444520265	 3.4051925543	 0.0380432545	-0.045697
C	-0.0341343295	 4.0909365631	 0.0251256375	-0.273657
C	 1.1191717047	 3.316251138	 0.0053087568	 0.355453
F	 2.2989498493	 3.9223873537	-0.0076396526	-0.065394
N	 1.1503087628	 1.9993905555	-0.0020756133	-0.360923
H	-2.1651065156	 1.4324286779	 0.0402275213	 0.123529
H	-2.1794978546	 3.9540930881	 0.0537078175	 0.126761
H	 0.0292222328	 5.1707228904	 0.0299427255	 0.123529
214.0601	248.1281	353.222	471.553	505.6735	550.2486	572.6638	688.1508	749.7129	753.7137	814.1428	886.9552	993.4415	1004.36	1025.4605	1089.1492	1161.9808	1271.7505	1338.0523	1357.8776	1488.6851	1489.3216	1634.6416	1643.1791	3196.238	3225.8481	3229.3511
FC1=CC=CC(F)=N1	Fc1cccc(F)n1	
InChI=1S/C5H3F2N/c6-4-2-1-3-5(7)8-4/h1-3H	InChI=1S/C5H3F2N/c6-4-2-1-3-5(7)8-4/h1-3H
