10
gdb 132342	2.06475	1.56347	0.89267	2.2051	56.3	-0.2927	-0.0773	0.2153	1113.7978	0.050254	-554.0353	-554.027132	-554.026188	-554.069856	27.341	
F	-0.2558308687	-0.0622360374	 0.0746614253	-0.055036
C	 0.0263472035	 1.2329628863	 0.0063314204	 0.407806
N	-1.1363326237	 1.9566233112	-0.0397666445	-0.415771
C	-1.0944287618	 3.2378977054	 0.0297125485	 0.400831
F	-2.2530353565	 3.8545212808	-0.0265779329	-0.029535
N	-0.0934443913	 4.1101024118	 0.2113650439	-0.324005
C	 1.1312700653	 4.0649417824	 0.0519442183	 0.551454
N	 2.2807779828	 4.3701499813	-0.1165006346	-0.504525
O	 1.1759390564	 1.5908041693	-0.0142459529	-0.35128
H	 3.0791334842	 3.7723803589	 0.0287152985	 0.32006
32.5422	71.451	140.1626	190.4962	246.6699	361.9747	423.0095	445.8482	507.5866	576.4477	601.9731	715.7818	735.0474	763.1307	811.7747	887.0776	1038.7719	1246.6685	1334.5833	1529.7597	1657.8545	1803.082	2263.3878	3673.7871
FC1=NC(F)=NC(=N)O1	FC(=O)N=C(F)[N][C][NH]	
InChI=1S/C3HF2N3O/c4-1-7-2(5)9-3(6)8-1/h6H	InChI=1S/C3HF2N3O/c4-2(7-1-6)8-3(5)9/h6H
