10
gdb 130612	3.72795	1.30903	0.96883	2.787	63.03	-0.294	-0.1179	0.1761	1065.4804	0.053917	-467.58984	-467.582901	-467.581957	-467.621957	24.27	
O	-0.0419963201	-0.0353869609	 0.0038330195	-0.298046
C	-0.0244330637	 1.1688468956	 0.0100387563	 0.377029
C	-1.2645910248	 1.9821009895	 0.0312669955	-0.035428
N	-1.3251753112	 3.2618538349	 0.0382391817	-0.032218
O	-0.0899123994	 3.9267711369	 0.0239380226	-0.237536
C	 1.0404179901	 3.191134415	 0.0043659682	 0.347977
N	 1.1666418015	 1.9201543667	-0.0035532843	-0.334861
C	 2.2005794824	 4.0516549517	-0.0082692841	 0.317003
N	 3.1310262218	 4.7355866559	-0.0184341936	-0.285012
H	-2.2255359166	 1.4754518346	 0.0423104083	 0.181093
83.5349	132.497	156.5317	375.4075	406.1058	438.8253	490.2979	535.9614	584.564	713.6032	727.0067	790.2376	887.9356	935.2525	961.3892	988.1122	1185.5015	1290.0273	1303.1648	1629.1089	1669.0429	1819.0904	2370.6898	3192.7698
O=C1C=NOC(=N1)C#N	O=c1cnoc(n1)C#N	
InChI=1S/C4HN3O2/c5-1-4-7-3(8)2-6-9-4/h2H	InChI=1S/C4HN3O2/c5-1-4-7-3(8)2-6-9-4/h2H
