11
gdb 5181	7.97847	1.22547	1.10648	1.7897	54.	-0.2596	-0.0284	0.2312	972.1573	0.07241	-434.573876	-434.567407	-434.566463	-434.605587	22.089	
O	 0.0986077374	-0.01513003	 0.1472581012	-0.232219
C	 0.2685186307	 1.1214933012	-0.1399720535	 0.168054
O	 0.4476014165	 2.0911327473	 0.8283561092	-0.208652
C	 0.7269586217	 3.3406979618	 0.4086471978	 0.372497
C	 1.7391170256	 3.917904091	-0.281076141	-0.211121
N	 1.475272545	 5.2799444836	-0.3836638228	-0.24457
C	 0.3552697149	 5.439025724	 0.2376323364	 0.088998
O	-0.1771358399	 4.298266952	 0.7494242715	-0.152711
H	 0.3154961997	 1.5515459482	-1.1548394558	 0.112971
H	 2.6282431222	 3.4653613481	-0.6878745229	 0.142997
H	-0.2009974037	 6.3470982927	 0.4063804699	 0.163756
50.9357	143.8145	154.8522	385.3551	437.2172	493.0403	668.4802	690.4833	825.8665	833.8192	844.7572	936.1806	1007.1885	1035.9458	1076.7578	1121.2264	1130.4071	1250.5515	1274.1846	1364.1171	1400.9657	1555.0858	1641.7591	1897.1612	3005.0376	3275.0201	3284.2463
O=COC1=CN=CO1	O=COc1cnco1	
InChI=1S/C4H3NO3/c6-3-8-4-1-5-2-7-4/h1-3H	InChI=1S/C4H3NO3/c6-3-8-4-1-5-2-7-4/h1-3H
