11
gdb 129542	5.2001	1.05224	0.9857	4.9307	53.33	-0.3059	-0.0756	0.2303	1122.5274	0.064425	-521.973683	-521.965877	-521.964933	-522.007507	26.372	
N	-0.1972838482	 1.299769487	 0.150177429	-0.559934
C	-0.0181208891	 0.0209507446	-0.2334434817	 0.510424
O	 0.6343630324	-0.4041257356	-1.1417375173	-0.350394
O	-0.7477331301	-0.803054599	 0.6460443202	-0.28399
C	-0.7985199159	-2.1015741477	 0.3300131339	 0.534913
N	-0.3108082371	-3.0443826431	 1.0807123266	-0.150778
O	-0.6710449281	-4.1795623976	 0.4449410003	-0.13809
N	-1.3844058074	-3.848193494	-0.7142106464	 0.057097
N	-1.4602114912	-2.59721739	-0.773506647	-0.192603
H	 0.3102495709	 2.0164817853	-0.3368209482	 0.288379
H	-0.7386407061	 1.5281469099	 0.9647326006	 0.284977
48.8712	71.0711	126.6872	137.8677	346.5144	394.9821	453.455	542.5214	623.1867	663.1978	688.5543	710.6585	762.1684	827.777	932.172	962.2837	1063.3104	1112.3648	1125.768	1307.2231	1335.7947	1510.9125	1603.6421	1628.3292	1900.733	3632.1443	3767.1582
NC(=O)OC1=NON=N1	NC(=O)Oc1nonn1	
InChI=1S/C2H2N4O3/c3-1(7)8-2-4-6-9-5-2/h(H2,3,7)	InChI=1S/C2H2N4O3/c3-1(7)8-2-4-6-9-5-2/h(H2,3,7)
