10
gdb 21422	4.09515	2.15366	1.4114	3.243	53.82	-0.2893	-0.106	0.1833	768.0686	0.061051	-446.767404	-446.761197	-446.760253	-446.798442	22.012	
N	-0.0884112132	 1.3180759342	 0.2983945895	-0.536938
C	-0.0002495982	 0.1126684743	-0.0442310519	 0.505395
N	-1.1249281769	-0.7021862415	-0.0890733559	-0.245847
N	-1.1553228699	-1.9896089448	-0.4354603733	 0.010981
N	-0.0923744177	-2.5855242788	-0.7657219427	-0.255782
C	 1.1435601152	-1.8852123509	-0.7696831282	 0.486649
O	 2.1739942885	-2.3915600923	-1.0704626713	-0.283104
O	 1.1427015304	-0.537112608	-0.401640443	-0.241962
H	 0.8193225698	 1.7784121931	 0.2807901934	 0.253882
H	-2.016287458	-0.2999481954	 0.1612316235	 0.306726
81.245	106.2568	371.1795	404.5913	537.2488	545.171	574.6845	649.2615	702.5878	748.333	797.3292	831.131	929.486	996.7418	1036.0091	1093.2724	1192.7549	1359.6458	1422.7526	1569.2482	1781.4991	1895.9355	3534.0661	3637.6618
N=C1NN=NC(=O)O1	[NH][C]1NN=NC(=O)O1	
InChI=1S/C2H2N4O2/c3-1-4-6-5-2(7)8-1/h(H2,3,4,5,7)	InChI=1S/C2H2N4O2/c3-1-4-6-5-2(7)8-1/h(H2,3,4,5,7)
