11
gdb 5708	5.19241	2.27658	1.60571	1.6025	51.59	-0.1996	-0.005	0.1946	705.6999	0.073847	-434.509703	-434.504034	-434.50309	-434.5396	20.761	
C	 0.0661309173	 1.3719134357	-0.1219419839	 0.01238
O	 1.4673476363	 1.8092196932	-0.0006152143	-0.288117
C	 1.9747733787	 0.7221984121	 0.6246556778	 0.342867
C	 1.1775723118	-0.3440883518	 0.6294565503	 0.266033
O	-0.0098257964	-0.0634725148	-0.0140883368	-0.277305
N	 1.8303425338	-1.435013342	 1.1236450183	-0.334011
C	 3.0101747674	-0.9503576601	 1.4022259065	 0.031612
O	 3.1833125007	 0.399071979	 1.1040368614	-0.191353
H	-0.4902265269	 1.8278435343	 0.7080850341	 0.127997
H	-0.308871865	 1.6859801267	-1.0955241013	 0.149489
H	 3.8495663924	-1.4366089023	 1.867736258	 0.160407
144.7995	204.4822	314.5093	469.212	624.4159	637.4975	687.7987	703.3954	745.9563	771.6622	850.2789	929.1433	1027.7327	1036.9958	1123.5207	1150.2918	1227.2843	1264.6597	1377.5676	1429.3644	1482.5847	1494.969	1522.1506	1731.5178	3012.1865	3145.3012	3305.9196
C1OC2=C(O1)N=CO2	C1Oc2c(O1)nco2	
InChI=1S/C4H3NO3/c1-5-3-4(6-1)8-2-7-3/h1H,2H2	InChI=1S/C4H3NO3/c1-5-3-4(6-1)8-2-7-3/h1H,2H2
