11
gdb 130557	3.7989	1.33844	0.98973	3.3358	65.01	-0.3049	-0.1061	0.1988	1063.295	0.065181	-447.677391	-447.670113	-447.669169	-447.709891	25.399	
O	 0.0138976556	-0.0557079	 0.0033606685	-0.28317
C	 0.0114936669	 1.1478958704	 0.0069490323	 0.299711
C	 1.1783051183	 1.9831173345	 0.001092428	 0.262251
C	 2.1988321825	 2.6171741134	-0.004412987	-0.361106
N	-1.2272508444	 1.85311868	 0.0183191133	-0.052434
C	-2.4864139696	 1.3418309951	 0.0265764833	 0.103712
N	-3.3422951232	 2.3260510702	 0.034231619	-0.226408
N	-2.5848117311	 3.4770794492	 0.0328495501	-0.07261
N	-1.3340746764	 3.2136825757	 0.0238159349	-0.103713
H	 3.0949494797	 3.1904533079	-0.0095648324	 0.23479
H	-2.6982725082	 0.2862777435	 0.0250101999	 0.198977
72.433	128.0544	159.1389	246.8403	268.2705	449.8319	509.1243	649.513	681.4438	683.3843	723.0632	731.7416	768.714	902.54	944.3366	990.1214	1065.5394	1088.7692	1190.8983	1220.2089	1370.5946	1419.4861	1515.9296	1798.177	2236.2076	3305.8261	3490.9217
O=C(C#C)N1C=NN=N1	O=C(C#C)n1cnnn1	
InChI=1S/C4H2N4O/c1-2-4(9)8-3-5-6-7-8/h1,3H	InChI=1S/C4H2N4O/c1-2-4(9)8-3-5-6-7-8/h1,3H
