10
gdb 130566	3.74044	1.23651	0.9293	3.7665	61.7	-0.3169	-0.1194	0.1976	1100.1038	0.052865	-467.59057	-467.583185	-467.582241	-467.623251	25.081	
O	 0.0185259935	-0.0524352877	 0.0038398692	-0.28173
C	-0.0467727885	 1.1563662569	 0.0077252032	 0.214304
C	 1.1746671163	 1.980813414	 0.0009685096	 0.261771
N	 2.1562734246	 2.5905906327	-0.0046150075	-0.30502
C	-1.3102059846	 1.887730448	 0.0191260902	 0.172115
C	-2.590927821	 1.3914740503	 0.0270109197	 0.019227
O	-3.4517585937	 2.3686916139	 0.0364783984	-0.163699
N	-2.6149767319	 3.6268881509	 0.0339066806	 0.012543
N	-1.4351631989	 3.2618141152	 0.0239010904	-0.141083
H	-2.9550048358	 0.3752967258	 0.0267351562	 0.211572
72.1304	115.6077	188.1195	236.8681	313.6969	327.4853	456.4124	485.0197	609.781	674.2377	684.5593	787.4491	930.4852	946.5991	965.6823	1080.7628	1178.3875	1294.2843	1377.4913	1541.344	1556.2567	1759.7563	2348.8171	3273.818
O=C(C#N)C1=CON=N1	O=C(C#N)c1conn1	
InChI=1S/C4HN3O2/c5-1-4(8)3-2-9-7-6-3/h2H	InChI=1S/C4HN3O2/c5-1-4(8)3-2-9-7-6-3/h2H
