11
gdb 42380	8.59884	0.58945	0.5535	3.1471	75.42	-0.3083	-0.1132	0.1951	1777.1802	0.063795	-414.404551	-414.3958	-414.394856	-414.439482	28.856	
O	-0.2094888401	-0.0936926408	 0.0015683059	-0.226606
C	-0.0869287315	 1.0986498812	 0.0061790337	 0.309951
C	 1.2443215162	 1.8539013821	-0.0015263506	-0.492516
C	 2.4034955614	 0.9856793623	-0.0161836452	 0.072353
C	 3.3718997904	 0.2673134265	-0.0284064124	 0.105718
C	 4.4727201988	-0.5413299229	-0.0422636696	 0.218657
N	 5.4115248717	-1.2244093993	-0.0540498132	-0.324007
C	-1.2611420733	 1.992579182	 0.0204134831	 0.227108
N	-2.1686563663	 2.7087816998	 0.0315250992	-0.281141
H	 1.2436867109	 2.5259360176	-0.8716512118	 0.195232
H	 1.2588895718	 2.5166580416	 0.8755826008	 0.195251
37.0547	61.2955	152.0152	152.1342	205.4197	267.0648	348.8192	372.5359	441.6311	563.6233	571.7544	586.9929	600.5922	741.68	832.1008	934.6686	1062.4407	1177.3958	1213.0553	1341.8621	1423.4225	1819.8673	2276.9009	2340.4825	2412.8619	3017.5741	3047.3159
O=C(CC#CC#N)C#N	O=C(CC#CC#N)C#N	
InChI=1S/C6H2N2O/c7-4-2-1-3-6(9)5-8/h3H2	InChI=1S/C6H2N2O/c7-4-2-1-3-6(9)5-8/h3H2
