11
gdb 21879	3.40737	2.52394	1.44993	2.1525	57.53	-0.256	-0.0781	0.1779	762.769	0.073279	-430.700425	-430.694255	-430.693311	-430.731027	22.77	
O	-0.0653056109	 1.2896448243	 0.1764504448	-0.354128
C	 0.0133373611	-0.0239435506	 0.0416950501	 0.400497
N	 1.1511882383	-0.6112321992	-0.0883737772	-0.356113
C	 1.1019271875	-1.9837761296	-0.220836533	 0.102906
N	 0.0734596319	-2.754256778	-0.2318234735	-0.083628
O	-1.1653792954	-2.1047048337	-0.0891997642	-0.277821
C	-1.275363306	-0.7436363625	 0.052225868	 0.35595
N	-2.3875950859	-0.1563256237	 0.1806769919	-0.496313
H	 0.8436690601	 1.6289985499	 0.1524092343	 0.315193
H	 2.0508813457	-2.4980470572	-0.3317393637	 0.152302
H	-3.1559267963	-0.8305544899	 0.1627318425	 0.241155
85.5664	222.9565	332.17	415.0836	494.7979	547.677	563.0256	593.2247	642.9748	737.6501	798.4161	893.2717	903.5654	947.811	967.8055	1048.9005	1124.0523	1262.999	1313.9805	1353.3173	1486.371	1614.3443	1671.984	1740.7208	3199.8147	3471.636	3731.5398
OC1=NC=NOC1=N	OC1=C(ON=C[N]1)[NH]	
InChI=1S/C3H3N3O2/c4-2-3(7)5-1-6-8-2/h1,4H,(H,5,6,7)	InChI=1S/C3H3N3O2/c4-2-3(7)5-1-6-8-2/h1,4H,(H,5,6,7)
