11
gdb 23841	5.88082	1.62153	1.27106	1.4828	57.51	-0.2303	-0.091	0.1393	837.3761	0.073552	-434.862316	-434.8562	-434.855256	-434.892999	22.638	
F	 0.0167427454	 0.0321873069	 0.0031831512	-0.057134
C	-0.0358209056	 1.3567886388	 0.0107712053	 0.294515
N	-1.1866051796	 1.9236731016	 0.0288087049	-0.196598
N	-1.1652454691	 3.2577543818	 0.0355664971	-0.251084
C	-0.0236402084	 4.0742297264	 0.02514975	 0.450598
N	-0.1802815932	 5.3375280721	 0.0340459098	-0.552413
N	 1.2055573164	 3.3931892709	 0.0052822121	-0.271382
C	 1.192588102	 2.1042545084	-0.0014109218	-0.08624
H	-2.0666328811	 3.7123528416	 0.0498054558	 0.289876
H	 0.7329425745	 5.7871737417	 0.0244431471	 0.231539
H	 2.1397582186	 1.5661741597	-0.0166923213	 0.148322
66.079	331.5866	358.934	379.7052	463.8357	491.4319	526.7684	643.5398	666.2963	753.7488	808.846	833.2365	834.0988	978.4074	1002.01	1065.2216	1282.1358	1303.7318	1318.2625	1435.5442	1461.5491	1582.3467	1684.3345	1728.7025	3143.3303	3522.2221	3619.6451
FC1=NNC(=N)N=C1	FC1=NNC(=NC1)[NH]	
InChI=1S/C3H3FN4/c4-2-1-6-3(5)8-7-2/h1H,(H2,5,6,8)	InChI=1S/C3H4FN4/c4-2-1-6-3(5)8-7-2/h5H,1H2,(H,6,8)
