10
gdb 21975	5.60519	1.70513	1.30741	4.5429	51.86	-0.2904	-0.0896	0.2008	814.6101	0.061327	-450.533527	-450.527647	-450.526703	-450.564233	20.514	
O	-0.0747140289	-0.0020140419	 0.0038392806	-0.331292
N	-0.0406339342	 1.2152030851	 0.0068618076	 0.354724
O	 0.9687238641	 1.9153166521	 0.0028815986	-0.375874
C	-1.2967076586	 1.9315546962	 0.016952088	 0.327091
C	-1.4444107715	 3.2807496422	 0.0218802424	-0.036674
O	-2.776237109	 3.5241583151	 0.0310178049	-0.130002
C	-3.3546845874	 2.2907733721	 0.0311442929	 0.09038
N	-2.520297017	 1.3067427672	 0.0228365254	-0.270926
H	-0.769355586	 4.1168565731	 0.0200611058	 0.195736
H	-4.4323161014	 2.2614144889	 0.0378968037	 0.176837
75.0328	221.8346	227.662	436.4643	543.9363	619.3981	665.6246	780.2856	833.4332	836.0313	867.2888	926.0252	994.9586	1079.387	1138.6775	1219.7632	1278.2184	1364.4525	1411.9982	1558.1047	1582.1327	1648.8565	3289.0207	3320.9307
O=N(=O)C1=COC=N1	O=N(=O)c1cocn1	
InChI=1S/C3H2N2O3/c6-5(7)3-1-8-2-4-3/h1-2H	InChI=1S/C3H2N2O3/c6-5(7)3-1-8-2-4-3/h1-2H
