10
gdb 131074	7.19938	0.89066	0.80072	1.6205	51.59	-0.3012	-0.0625	0.2387	1262.0416	0.05241	-545.71885	-545.711675	-545.710731	-545.751586	24.309	
O	 0.0891486053	-0.0313277062	 0.0811680831	-0.203733
C	 0.0091757582	 1.1334004146	-0.0854255223	 0.183771
O	 1.1006161931	 1.9637003521	 0.2319706776	-0.219754
C	 0.9116090919	 3.2760647099	 0.1911774199	 0.540442
N	-0.1816354927	 3.913438959	 0.400818553	-0.22472
O	 0.2004427633	 5.273544864	 0.2156761845	-0.22606
C	 1.5248075226	 5.3386898388	-0.0666174825	 0.53676
O	 2.1796946584	 6.3007746949	-0.2621250565	-0.334164
O	 1.9912343971	 4.0193024638	-0.0884757333	-0.214996
H	-0.8333906972	 1.7099439791	-0.4895577036	 0.162454
61.9718	114.8628	163.2	215.9473	362.1202	383.9596	489.2714	599.8967	703.431	744.6945	775.039	821.9594	891.4016	958.8394	994.1604	1029.2083	1047.0483	1158.1981	1390.6139	1442.9444	1693.3644	1914.7026	1975.6864	3072.9279
O=COC1=NOC(=O)O1	O=COc1noc(=O)o1	
InChI=1S/C3HNO5/c5-1-7-2-4-9-3(6)8-2/h1H	InChI=1S/C3HNO5/c5-1-7-2-4-9-3(6)8-2/h1H
