11
gdb 25317	2.40266	1.59744	0.9595	2.9192	67.31	-0.289	-0.1092	0.1798	1085.8556	0.066569	-451.591045	-451.583923	-451.582979	-451.623271	24.72	
O	 0.0242624876	-0.1064354103	-0.0021024145	-0.248667
C	-0.0127553077	 1.0997192699	 0.0088156703	 0.062851
C	 1.1746410981	 1.9557270735	 0.00261716	 0.188742
C	 1.3426722627	 3.3194018689	 0.0125795552	 0.121268
N	 2.6954133863	 3.6190560808	-0.0004302774	-0.299544
C	 3.263168614	 2.4548004485	-0.0170237788	 0.091502
O	 2.4192570428	 1.4052193636	-0.0164486947	-0.144924
C	 0.3293981628	 4.3134387001	 0.0328629986	 0.242362
N	-0.5160034787	 5.1030212279	 0.0494257374	-0.318435
H	-0.9603462633	 1.6736321487	 0.0246846077	 0.1205
H	 4.3188855154	 2.2324673183	-0.0311068339	 0.184345
119.6524	132.992	173.0032	221.3371	285.8379	446.2063	508.3451	565.4406	622.6924	655.1808	752.0359	798.9929	885.1662	954.5364	1022.8176	1079.8335	1149.9774	1261.7475	1294.5377	1366.5227	1415.8715	1538.0981	1591.4098	1792.9331	2358.464	2944.6835	3282.1878
O=CC1=C(N=CO1)C#N	O=Cc1c(nco1)C#N	
InChI=1S/C5H2N2O2/c6-1-4-5(2-8)9-3-7-4/h2-3H	InChI=1S/C5H2N2O2/c6-1-4-5(2-8)9-3-7-4/h2-3H
