11
gdb 132261	3.52935	1.28162	0.9402	5.5145	66.17	-0.2988	-0.0894	0.2094	1093.0861	0.067322	-455.755733	-455.749151	-455.748207	-455.787151	23.979	
F	-0.0187746152	 0.0591360104	 0.0035343461	-0.042912
C	-0.0141291435	 1.3768629287	 0.0106895729	 0.344278
N	-1.1863569071	 1.9686555575	 0.0298013971	-0.316549
C	-1.1495852225	 3.3070108583	 0.0366121499	 0.256417
N	-0.0694271207	 4.0849114418	 0.0263279888	-0.273192
C	 1.1029231022	 3.4405279257	 0.0069319122	 0.0202
C	 1.2007724943	 2.0572799782	-0.0020068988	-0.258277
C	-2.4296918142	 3.9791545015	 0.0577880269	 0.291994
N	-3.4521169175	 4.5169002436	 0.0747025857	-0.314055
H	 1.9941749126	 4.0613981788	-0.0016990656	 0.146546
H	 2.1465043116	 1.5325230955	-0.0176797753	 0.145549
137.6508	159.7436	217.9468	383.6172	423.3751	497.9642	506.6056	549.4573	604.2077	715.1394	753.909	820.4699	870.6388	987.3353	1005.832	1014.2168	1101.1964	1275.1981	1292.2875	1346.9158	1407.566	1482.8118	1604.9096	1615.3754	2365.92	3180.5845	3230.2365
FC1=NC(=NC=C1)C#N	Fc1nc(ncc1)C#N	
InChI=1S/C5H2FN3/c6-4-1-2-8-5(3-7)9-4/h1-2H	InChI=1S/C5H2FN3/c6-4-1-2-8-5(3-7)9-4/h1-2H
