11
gdb 20753	7.31239	1.36096	1.15565	3.3847	60.35	-0.3106	-0.0885	0.2222	947.9823	0.072479	-393.592991	-393.586273	-393.585328	-393.624161	23.275	
C	 0.0070829998	 1.4907846827	 0.0125249531	-0.495229
C	-0.001857327	 0.0025992402	-0.0043660549	 0.349465
N	-0.0875525929	-0.6929904499	-1.1127897832	-0.133899
O	-0.0626418261	-2.0187649612	-0.6880581289	-0.185521
C	 0.0369252042	-1.9706905836	 0.6476321063	 0.338231
N	 0.0787262402	-0.7696734783	 1.13644939	-0.326417
C	 0.0833358345	-3.2029912754	 1.3579004648	 0.272702
N	 0.1206274873	-4.2066351897	 1.9293529537	-0.302685
H	 0.9306061624	 1.8554465244	 0.4711054782	 0.16142
H	-0.0710808216	 1.879358229	-1.0033570668	 0.160527
H	-0.829039031	 1.8643773918	 0.6103382077	 0.161406
131.1882	142.8662	158.487	296.4714	342.0925	488.4542	552.5484	568.0829	685.88	725.7646	759.3317	936.0458	997.4753	1042.7246	1063.7001	1072.0868	1276.6537	1357.2334	1418.0365	1470.9482	1474.2525	1543.5817	1602.632	2371.465	3057.3057	3120.6296	3158.5781
CC1=NOC(=N1)C#N	Cc1noc(n1)C#N	
InChI=1S/C4H3N3O/c1-3-6-4(2-5)8-7-3/h1H3	InChI=1S/C4H3N3O/c1-3-6-4(2-5)8-7-3/h1H3
