11
gdb 132040	2.43944	1.90439	1.06948	6.5011	56.88	-0.2507	-0.0521	0.1986	976.2019	0.064893	-533.816894	-533.809698	-533.808753	-533.848815	26.094	
O	 0.0454312335	 1.3461034335	 0.0075234847	-0.387628
C	-0.0252860449	 0.016729762	 0.0007577659	 0.355463
C	-1.1719411908	-0.6955074941	 0.0031189325	-0.0119
F	-2.3411683002	-0.0666690537	 0.0127800428	-0.042592
C	-1.151398594	-2.1534276676	-0.004760299	 0.324258
O	-2.14111811	-2.8442399048	-0.0030972958	-0.333165
N	 0.1605535165	-2.7223899894	-0.0148938162	-0.294038
C	 1.1745705083	-1.9709522755	-0.0163655562	 0.120071
O	 1.1826685586	-0.6006815891	-0.0090609841	-0.214081
H	 0.9744014986	 1.610838372	 0.0037032528	 0.320743
H	 2.1948614143	-2.3409640632	-0.0238436974	 0.162868
97.2442	185.4775	273.3587	274.1061	330.8966	346.7447	507.0538	507.2731	513.5752	588.3046	640.6701	702.6727	784.075	879.8799	948.8784	994.2945	1034.1041	1199.2424	1278.6122	1314.5657	1407.9518	1422.7077	1674.0617	1767.7861	1810.5648	3200.3229	3800.2444
OC1=C(F)C(=O)N=CO1	Oc1c(F)c(=O)nco1	
InChI=1S/C4H2FNO3/c5-2-3(7)6-1-9-4(2)8/h1,8H	InChI=1S/C4H2FNO3/c5-2-3(7)6-1-9-4(2)8/h1,8H
