11
gdb 130879	2.88085	0.78158	0.64494	1.0154	60.58	-0.2695	-0.0796	0.1899	1578.4362	0.058832	-488.751552	-488.740619	-488.739675	-488.793928	31.232	
O	-0.6710669568	-0.0693864959	-0.0710915349	-0.276477
C	-0.4373893781	 1.1142323078	-0.0336905207	 0.124597
C	 0.8804858196	 1.7332254952	 0.1945276192	-0.318097
C	 1.0583511813	 3.1940177325	 0.2231301219	 0.125975
O	 2.0956139789	 3.7865562843	 0.4012081132	-0.280572
N	 5.4579874607	 3.6675387921	-0.815701404	 0.001343
N	 4.8342025424	 2.7678614367	-0.7244930925	-0.0053
C	 1.941848437	 0.9361415451	 0.3841658123	 0.578364
O	 2.8416366523	 0.2488793961	 0.5487312487	-0.143604
H	-1.2331004927	 1.8775668152	-0.1746526285	 0.095974
H	 0.0979905052	 3.728859761	 0.0587971453	 0.097797
4.686	25.4159	38.6475	46.5708	83.4997	124.7845	131.0984	175.3264	248.3922	260.7347	476.748	485.5537	640.3376	786.749	810.2515	997.8753	1038.0658	1184.4742	1356.8925	1421.3016	1441.6252	1765.4969	1802.2998	2246.8906	2432.9092	2892.5426	2905.2867
O=CC1=CON=NC1=O	O=C[C](C=O)[C][O].N#N	
InChI=1S/C4H2N2O3/c7-1-3-2-9-6-5-4(3)8/h1-2H	InChI=1S/C4H2O3.N2/c5-1-4(2-6)3-7;1-2/h1-2H;
