11
gdb 21814	7.35904	1.20576	1.1295	2.527	52.93	-0.2964	-0.0688	0.2276	968.3047	0.071152	-426.843748	-426.836814	-426.83587	-426.877919	22.168	
O	-0.2004987181	 0.1949779771	 0.6461057383	-0.203509
C	-0.0047295894	 1.0692645005	-0.1475772694	 0.149884
C	 1.3221511934	 1.8411001895	-0.179745018	-0.238379
N	 1.3315600169	 2.8858717178	-1.182726854	 0.158634
N	 1.8257790468	 2.7409534302	-2.4051510586	-0.110574
N	 1.5858870865	 3.8672559987	-3.0008303099	-0.07472
N	 0.9430569258	 4.6895182354	-2.1469593601	-0.073737
N	 0.7795105928	 4.0795888352	-1.0141641127	-0.113923
H	-0.7525610003	 1.3812797823	-0.9068076506	 0.121672
H	 1.5002147865	 2.2924169857	 0.7985772742	 0.191343
H	 2.1371770491	 1.1509765977	-0.4073564691	 0.193309
13.2315	44.4445	113.6673	330.3819	364.9001	429.0874	701.6784	724.0901	765.2636	813.4415	967.258	1015.87	1021.2369	1097.4371	1142.0893	1146.6826	1254.8933	1279.0719	1325.3239	1405.3028	1411.0297	1416.2344	1434.0149	1852.9859	2921.0019	3091.3355	3150.1865
O=CCN1N=NN=N1	O=CCn1nnnn1	
InChI=1S/C2H3N5O/c8-2-1-7-5-3-4-6-7/h2H,1H2	InChI=1S/C2H3N5O/c8-2-1-7-5-3-4-6-7/h2H,1H2
