10
gdb 33389	1.53515	1.51816	1.51809	3.836	65.88	-0.3399	-0.047	0.2929	1030.5711	0.051455	-393.279629	-393.270939	-393.269994	-393.313258	29.555	
C	 0.0183492848	-1.2081119967	-0.0046811836	-0.364876
C	 0.0022315799	-0.0108068309	 0.0022224497	 0.344653
C	-0.0177539872	 1.4597378414	 0.0101621087	-0.382493
C	 1.3709937286	 1.988769146	-0.0002845912	 0.346607
N	 2.4530364766	 2.3873825448	-0.0084452395	-0.292757
C	-0.7340563654	 1.9664798143	-1.1893138494	 0.34654
N	-1.2919690872	 2.3477682631	-2.1237270637	-0.292765
C	-0.7109928705	 1.9538601501	 1.2282921247	 0.346681
N	-1.2507964632	 2.325248992	 2.1772195064	-0.292784
H	 0.0324515336	-2.271928494	-0.0108490322	 0.241194
112.2034	112.3025	145.6518	145.739	154.9332	337.7921	337.8932	358.4298	539.3128	539.3479	567.8138	574.1362	574.2075	592.9448	699.3471	699.3682	1060.946	1060.9971	1084.5315	2260.3388	2376.1362	2376.1577	2384.669	3491.0533
C#CC(C#N)(C#N)C#N	C#CC(C#N)(C#N)C#N	
InChI=1S/C6HN3/c1-2-6(3-7,4-8)5-9/h1H	InChI=1S/C6HN3/c1-2-6(3-7,4-8)5-9/h1H
