11
gdb 25337	3.35169	1.35509	0.96496	5.8264	59.69	-0.2802	-0.1217	0.1585	1081.3925	0.065199	-488.719003	-488.711688	-488.710744	-488.754023	24.704	
O	-0.163081724	 0.0332237153	-0.0023106157	-0.193718
C	-0.0266861614	 1.2219175316	 0.0064248898	 0.115138
C	 1.3315085801	 1.8934470885	-0.0024986977	 0.313909
N	 2.4317712269	 1.2658243695	-0.020029474	-0.294269
C	 3.6417168388	 2.0235060828	-0.0267581973	 0.407383
O	 4.7099223963	 1.4838763366	-0.0424658557	-0.290087
N	 3.5251716168	 3.4444475916	-0.0131744393	-0.276897
C	 2.3646689236	 3.9478471508	 0.0039008305	 0.129087
O	 1.1889833037	 3.2560570983	 0.0108514663	-0.199466
H	-0.8715351574	 1.9391277458	 0.0218077502	 0.117734
H	 2.1819787167	 5.0188841091	 0.0151627429	 0.171186
5.1312	103.4832	179.4776	187.682	425.3095	434.3681	532.9028	556.2172	596.893	676.6993	780.3543	831.8741	899.299	941.743	981.0192	1022.4809	1026.2051	1168.065	1249.5405	1404.2057	1414.2925	1638.0949	1735.6248	1845.0389	1850.6627	2944.1601	3188.4319
O=CC1=NC(=O)N=CO1	O=Cc1nc(=O)nco1	
InChI=1S/C4H2N2O3/c7-1-3-6-4(8)5-2-9-3/h1-2H	InChI=1S/C4H2N2O3/c7-1-3-6-4(8)5-2-9-3/h1-2H
