9
gdb 21429	4.1377	2.1458	1.41301	2.9986	50.57	-0.3201	-0.13	0.1902	756.6112	0.046864	-466.623743	-466.617262	-466.616318	-466.656514	21.926	
N	-0.1004805819	 1.3182143145	-0.1132880164	-0.456324
C	 0.0042656151	 0.0822094009	 0.0742945145	 0.500452
O	-1.0720020345	-0.6292733695	 0.4974851395	-0.219486
C	-1.0317484545	-1.9830968472	 0.7238373835	 0.521156
O	-1.9978291087	-2.5588250201	 1.092702233	-0.307574
O	 0.1463228284	-2.5930636863	 0.5042517433	-0.272117
N	 1.3493787237	-1.8212715468	 0.0351564758	 0.079308
N	 1.2238534873	-0.6300893839	-0.1390044959	-0.11415
H	 0.7905960949	 1.7003424086	-0.4273644374	 0.268735
12.5003	111.7711	305.6382	375.4421	421.0035	528.8055	565.6318	658.206	737.9655	755.6625	813.1316	903.2748	931.7914	963.11	1106.0392	1141.5074	1328.776	1692.8011	1766.4453	1926.5979	3524.8372
N=C1OC(=O)ON=N1	[NH]C1=N[N]OC(=O)O1	
InChI=1S/C2HN3O3/c3-1-4-5-8-2(6)7-1/h3H	InChI=1S/C2HN3O3/c3-1-4-5-8-2(6)7-1/h3H
