11
gdb 23947	9.73386	0.67514	0.63135	5.6681	81.23	-0.2631	-0.0716	0.1915	1584.0383	0.067459	-414.422718	-414.415622	-414.414678	-414.455158	24.908	
N	 0.0550668625	-3.7091176919	-0.0183094973	-0.330369
C	 0.0418398611	-2.5468376673	-0.0118079649	 0.160391
C	 0.0213699976	-1.1841591221	-0.0041185106	 0.315106
C	-0.0038911084	 0.0258253427	 0.0028026996	-0.101737
C	-0.0392288133	 1.4326120313	 0.010943048	 0.062349
C	-1.1329459075	 2.2491953001	 0.0302506328	-0.10518
O	-0.6993814019	 3.5318846999	 0.0313415429	-0.124036
C	 0.6561864652	 3.4351173249	 0.0123977491	 0.065312
N	 1.1119820604	 2.2310482961	-0.0003438786	-0.287208
H	-2.1960740263	 2.0838573087	 0.0437937852	 0.175888
H	 1.2070223606	 4.3622608977	 0.0099624439	 0.169485
77.6389	86.1922	228.3193	233.1192	430.7362	462.9278	508.9015	581.9501	590.0559	635.8551	707.4665	805.4624	859.2184	921.0292	933.638	1037.9511	1090.2394	1142.9164	1240.1414	1303.0612	1344.3822	1563.0522	1589.3852	2265.0848	2386.0339	3283.9855	3302.3418
N#CC#CC1=COC=N1	N#CC#Cc1cocn1	
InChI=1S/C6H2N2O/c7-3-1-2-6-4-9-5-8-6/h4-5H	InChI=1S/C6H2N2O/c7-3-1-2-6-4-9-5-8-6/h4-5H
