10
gdb 21745	5.69545	2.31275	1.64483	3.3872	53.42	-0.2573	-0.0498	0.2076	675.6501	0.06346	-413.438529	-413.433628	-413.432684	-413.467554	18.603	
O	-0.0563620462	 1.4006026981	 0.010394306	-0.193769
C	 1.2787665183	 1.715150423	-0.0010941984	 0.060701
N	 2.1189520519	 0.7191995665	-0.0145772893	-0.345662
C	 1.2660920348	-0.3517530276	-0.0119836593	 0.409245
C	-0.0353014076	 0.0361885681	 0.0028501661	 0.20177
C	-0.7761750975	-1.1594189905	 0.0037051362	-0.115105
N	 0.0556917225	-2.1877761444	-0.0099987458	-0.124675
O	 1.3794251563	-1.6773836066	-0.0201816849	-0.218775
H	 1.511778932	 2.7684935291	 0.002267047	 0.170392
H	-1.8377105746	-1.3539638156	 0.0130707824	 0.155877
226.1162	363.4442	481.5191	610.2852	633.9547	694.5246	767.3722	775.6344	841.1961	845.8372	887.4724	925.284	985.7017	1080.3959	1172.3032	1199.6157	1311.6672	1407.8621	1435.3322	1500.0425	1549.0402	1617.8552	3261.7067	3281.7687
O1C=NC2=C1C=NO2	o1cnc2c1cno2	
InChI=1S/C4H2N2O2/c1-3-4(8-6-1)5-2-7-3/h1-2H	InChI=1S/C4H2N2O2/c1-3-4(8-6-1)5-2-7-3/h1-2H
