10
gdb 21970	5.6254	1.7395	1.32865	2.8899	53.78	-0.2935	-0.1027	0.1908	805.5885	0.061363	-450.531303	-450.525428	-450.524484	-450.561932	20.427	
O	-0.0401948824	 0.0147008918	 0.00447029	-0.362623
N	-0.0322733464	 1.2415546712	 0.0080396954	 0.341361
O	 0.952051437	 1.9653160805	 0.0032425958	-0.347421
C	-1.320906307	 1.862667156	 0.0189688947	 0.416446
C	-2.5800445823	 1.3536348873	 0.0268957357	-0.119843
N	-3.4686167443	 2.4103581749	 0.0361096077	-0.248202
C	-2.7119835714	 3.465391457	 0.0334726681	 0.102189
O	-1.3861470965	 3.2165708176	 0.0230646464	-0.135161
H	-2.8883451173	 0.3219073631	 0.0264015333	 0.173965
H	-3.0080048595	 4.5026900405	 0.0383391829	 0.17929
86.3383	205.3093	222.9915	440.1793	535.26	614.2791	660.6791	776.135	832.9715	870.8099	913.8232	935.1831	989.9975	1113.5238	1156.006	1237.0015	1258.4248	1359.1983	1403.1111	1516.2539	1591.4107	1639.2103	3284.0018	3293.259
O=N(=O)C1=CN=CO1	O=N(=O)c1cnco1	
InChI=1S/C3H2N2O3/c6-5(7)3-1-4-2-8-3/h1-2H	InChI=1S/C3H2N2O3/c6-5(7)3-1-4-2-8-3/h1-2H
