8
gdb 21779	7.30493	1.43969	1.20267	0.1523	48.71	-0.3214	-0.1061	0.2152	855.5134	0.036958	-449.40235	-449.396469	-449.395525	-449.432743	20.279	
O	 0.0909587337	 0.0065808156	 0.0027147654	-0.32554
C	-0.0015054732	 1.1814262033	 0.0095826205	 0.5172
O	-1.149074098	 1.9298785193	 0.0293868288	-0.210879
N	-0.8268387245	 3.2914794223	 0.0311517569	-0.136954
C	 0.4596372438	 3.3067832126	 0.012927148	 0.355011
O	 1.0491124947	 2.0914389336	-0.0011809373	-0.213013
C	 1.2588694496	 4.4801047868	 0.0069922571	 0.299395
N	 1.9207657839	 5.4269766165	 0.0019624207	-0.28522
137.4419	161.1087	266.8206	459.2339	479.2779	564.2225	603.8058	705.033	767.3471	770.5316	884.1944	930.8861	1007.9213	1136.1487	1365.4359	1629.8924	1977.5562	2375.8277
O=C1ON=C(O1)C#N	O=c1onc(o1)C#N	
InChI=1S/C3N2O3/c4-1-2-5-8-3(6)7-2	InChI=1S/C3N2O3/c4-1-2-5-8-3(6)7-2
