11
gdb 21687	3.75543	1.93394	1.27774	1.5063	59.18	-0.2572	-0.0461	0.2111	845.915	0.073765	-393.589854	-393.583265	-393.582321	-393.620657	24.148	
N	 0.0617616129	 1.3496519763	 0.1447445007	-0.592487
C	 0.035981998	-0.0133708404	 0.0395182445	 0.367062
N	-1.0843300154	-0.7014505487	 0.0186100986	-0.216463
O	-0.690235533	-2.0540233174	-0.0156871155	-0.158121
C	 0.6307949829	-2.1295888542	-0.0268849535	 0.015226
C	 1.1855765246	-0.8832555697	 0.0051242525	-0.001752
C	 2.5431538449	-0.4998357887	 0.0011132502	 0.197357
N	 3.6427479609	-0.1350006695	-0.0093708152	-0.341837
H	 0.8813005259	 1.8087192625	-0.2218784198	 0.276464
H	-0.8072020024	 1.8157045564	-0.0693211888	 0.274243
H	 1.0652754607	-3.1170503367	-0.0578413337	 0.180308
131.6951	171.0202	293.3305	343.2757	387.3032	517.6468	544.9565	553.3324	587.0719	596.7694	743.1962	753.3674	870.272	905.1649	920.0376	1127.2635	1190.2192	1230.5598	1320.0799	1451.9647	1554.7576	1634.5038	1664.1769	2347.049	3267.8373	3581.9505	3690.21
NC1=NOC=C1C#N	Nc1nocc1C#N	
InChI=1S/C4H3N3O/c5-1-3-2-8-7-4(3)6/h2H,(H2,6,7)	InChI=1S/C4H3N3O/c5-1-3-2-8-7-4(3)6/h2H,(H2,6,7)
