11
gdb 130804	8.62812	0.66787	0.61989	0.7141	77.75	-0.2865	-0.1139	0.1726	1612.8881	0.064601	-451.492232	-451.484605	-451.483661	-451.525922	25.47	
O	-0.1162881253	-0.0081561156	-0.0009857105	-0.213593
C	-0.0283333161	 1.1971055343	 0.0076147213	 0.005768
C	 1.227838892	 1.9086450422	-0.0010219029	 0.173511
C	 2.2693918885	 2.5232190626	-0.0080228141	-0.00952
C	 3.4886330738	 3.211752985	-0.0163548877	 0.291913
C	 4.7888024977	 2.7885210424	-0.0337826697	-0.223648
N	 5.5728035679	 3.9107913795	-0.0345153587	-0.101164
N	 4.8573654585	 4.9492962854	-0.0179195145	-0.001667
O	 3.4976553303	 4.556994436	-0.0048970581	-0.204859
H	-0.9199893806	 1.8532120451	 0.0230242832	 0.11908
H	 5.1959170132	 1.7925755231	-0.0460680085	 0.164178
55.063	74.8761	108.1598	205.7504	266.1097	415.9892	497.9328	498.5985	691.9174	704.7078	716.6428	726.4065	857.7913	958.1075	993.5592	1016.5216	1069.2899	1125.6437	1274.6341	1331.8113	1417.7603	1431.2827	1589.2783	1762.4513	2321.0666	2944.5851	3300.7424
O=CC#CC1=CN=NO1	O=CC#Cc1cnno1	
InChI=1S/C5H2N2O2/c8-3-1-2-5-4-6-7-9-5/h3-4H	InChI=1S/C5H2N2O2/c8-3-1-2-5-4-6-7-9-5/h3-4H
