11
gdb 21863	7.96586	1.33485	1.14327	3.9169	56.33	-0.2525	-0.0734	0.1791	928.9564	0.072446	-430.721562	-430.715065	-430.714121	-430.752383	23.265	
O	 0.0703411704	 1.3772537369	-0.0333026059	-0.416948
C	 0.0647905858	 0.0394664184	-0.0966556294	 0.378073
C	 0.0077242219	-0.7655546392	-1.1980644299	-0.179286
N	 0.0325290815	-2.0343794161	-0.6637287507	 0.004473
C	-0.0056125958	-3.2531809775	-1.3770281653	 0.200425
O	 0.0177070382	-4.3344110368	-0.873142038	-0.235385
N	 0.1010850709	-1.988399454	 0.6926760583	-0.101099
N	 0.1202714229	-0.7392971061	 1.0283491421	-0.246316
H	 0.1180055957	 1.6174560245	 0.9015407265	 0.316159
H	-0.0452805264	-0.5696417018	-2.2538240187	 0.165796
H	-0.0604144152	-3.0616393883	-2.4635715389	 0.114108
106.557	210.1559	230.9207	361.9889	392.0381	400.5349	513.0315	650.9476	710.2476	732.8733	760.2923	807.9281	994.5873	1025.053	1047.1891	1167.196	1194.418	1251.8944	1309.3984	1411.8802	1432.0993	1471.4966	1684.6101	1860.736	2983.2132	3301.3096	3787.3731
OC1=CN(C=O)N=N1	Oc1cn(C=O)nn1	
InChI=1S/C3H3N3O2/c7-2-6-1-3(8)4-5-6/h1-2,8H	InChI=1S/C3H3N3O2/c7-2-6-1-3(8)4-5-6/h1-2,8H
