10
gdb 133448	3.12179	1.3983	0.96573	3.8372	53.42	-0.283	-0.1001	0.1829	1031.5386	0.05181	-557.801051	-557.794316	-557.793372	-557.83265	24.62	
F	 0.0203112645	 0.0805144079	 0.14572765	-0.019897
C	-0.0364643755	 1.3889284399	 0.0700918045	 0.189496
C	-1.1917186422	 2.0705989813	 0.0709874076	-0.367152
C	-1.0751697535	 3.4963046302	-0.0180456903	 0.377806
F	-2.2002650532	 4.188754742	-0.0190726487	-0.044232
N	 0.0043811358	 4.1826892832	-0.0978582038	-0.123776
O	 1.1860452158	 3.4509941446	-0.0966970373	-0.257512
C	 1.2624515204	 2.0737873534	-0.0169153738	 0.388724
O	 2.3330162738	 1.5390549617	-0.0246174722	-0.310522
H	-2.1624993958	 1.5956980359	 0.1339970939	 0.167066
105.4544	199.4857	304.6551	367.3956	371.3117	415.0879	466.9944	498.4109	610.4015	654.8395	690.3716	773.2818	814.4905	898.4976	949.2743	1071.96	1119.164	1196.9372	1373.0136	1441.9535	1627.7557	1714.9615	1854.3157	3221.9616
FC1=CC(F)=NOC1=O	Fc1cc(F)noc1=O	
InChI=1S/C4HF2NO2/c5-2-1-3(6)7-9-4(2)8/h1H	InChI=1S/C4HF2NO2/c5-2-1-3(6)7-9-4(2)8/h1H
