11
gdb 25139	3.84633	1.2998	0.9715	5.336	68.37	-0.2883	-0.1208	0.1675	1080.3558	0.067034	-447.752849	-447.745889	-447.744945	-447.784905	24.789	
N	-0.0169797164	 1.3221358507	 0.0100128495	-0.492256
C	-0.0409095418	 0.0662612006	 0.0032058372	 0.443031
O	 1.1898138078	-0.6720212055	-0.0070657371	-0.203883
C	 1.1362403374	-2.000139172	-0.0139978772	 0.15743
N	 0.0736936554	-2.7174403984	-0.0124347796	-0.305598
C	-1.0946987811	-1.9640289282	-0.0022516648	 0.237108
N	-1.2024036337	-0.6794256933	 0.0051611896	-0.268933
C	-2.3136361952	-2.7409370848	-0.000597155	 0.31323
N	-3.2796617324	-3.3746623737	 0.0006207282	-0.30052
H	 0.9381576844	 1.6771202153	 0.0070892592	 0.245964
H	 2.1248212658	-2.4521752406	-0.02149169	 0.174427
83.8048	136.6901	161.3972	342.1502	443.7705	451.3968	476.5081	577.489	595.4338	717.6702	726.9705	805.6829	814.3619	868.408	942.988	1000.4069	1055.2655	1143.1132	1276.9751	1297.2861	1407.2455	1588.6812	1668.1236	1769.5646	2365.3288	3187.7103	3520.1213
N=C1OC=NC(=N1)C#N	[NH]C1=N[C@H](N=CO1)C#N	
InChI=1S/C4H2N4O/c5-1-3-7-2-9-4(6)8-3/h2,6H	InChI=1S/C4H3N4O/c5-1-3-7-2-9-4(6)8-3/h2-3,6H/t3-/m0/s1
