10
gdb 23798	4.07139	1.8866	1.28921	1.283	52.36	-0.2647	-0.0784	0.1863	811.2053	0.059678	-458.550204	-458.544253	-458.543309	-458.580563	21.782	
F	 0.0518536506	 0.0507926171	 0.0024941665	-0.022363
C	-0.0606384617	 1.3545638135	 0.0111678129	 0.452885
C	-1.2410446198	 1.9996560337	 0.0307083909	-0.464982
C	-1.2133561412	 3.4460369209	 0.0382653234	 0.38632
O	-2.1735859423	 4.1940737981	 0.0553507936	-0.353163
C	 0.1807239416	 3.9743395083	 0.0222493571	-0.042309
N	 1.2753383065	 3.3083327066	 0.0037518488	-0.037725
O	 1.1494306603	 1.904502682	-0.0022306436	-0.237923
H	-2.1705942658	 1.4482888065	 0.0402867968	 0.15026
H	 0.3162012818	 5.0527475033	 0.0262625839	 0.169002
145.8178	199.3312	365.6864	409.3458	494.8477	508.3655	535.5403	682.5399	720.6742	738.9309	858.0805	900.693	959.1116	959.1373	1002.1491	1217.1791	1265.1348	1304.5713	1398.9608	1642.5535	1689.5813	1771.1028	3185.8745	3240.204
FC1=CC(=O)C=NO1	Fc1cc(=O)cno1	
InChI=1S/C4H2FNO2/c5-4-1-3(7)2-6-8-4/h1-2H	InChI=1S/C4H2FNO2/c5-4-1-3(7)2-6-8-4/h1-2H
