11
gdb 123276	10.27535	0.68309	0.64051	4.0987	90.24	-0.2586	-0.0868	0.1718	1580.5616	0.064912	-414.328848	-414.321481	-414.320537	-414.361341	26.464	
C	 0.1088651711	-3.7558551498	-0.0199076979	-0.572594
C	 0.0651588987	-2.5487026389	-0.0125751245	 0.274685
C	 0.0173139073	-1.1938401212	-0.0043604389	-0.083153
C	-0.0336605265	 0.0178860956	 0.0030950059	 0.404806
C	-0.0920545466	 1.414888918	 0.0116728764	 0.190064
C	-1.1371443184	 2.298913011	 0.0307626151	-0.241378
N	-0.5962280598	 3.5558986105	 0.0304454764	-0.10744
N	 0.6624094831	 3.4990378305	 0.013070802	-0.016992
O	 1.0464008388	 2.1313693025	 0.0002554161	-0.209237
H	 0.1476320135	-4.8176422952	-0.0263655016	 0.207954
H	-2.1980677112	 2.121284607	 0.044147161	 0.153284
77.0615	86.4312	235.3656	237.1326	434.8756	439.3539	472.2208	579.9386	585.1057	627.0108	627.3308	690.8149	705.6549	740.522	842.8105	948.2882	991.1965	1076.7146	1127.4664	1285.1954	1331.1336	1436.6539	1587.3947	2184.7208	2342.6078	3301.4239	3498.5221
C#CC#CC1=CN=NO1	C#CC#Cc1cnno1	
InChI=1S/C6H2N2O/c1-2-3-4-6-5-7-8-9-6/h1,5H	InChI=1S/C6H2N2O/c1-2-3-4-6-5-7-8-9-6/h1,5H
