11
gdb 23673	4.27133	1.84926	1.29053	2.0283	54.47	-0.2746	-0.034	0.2406	822.4183	0.074169	-438.75686	-438.751104	-438.75016	-438.786867	21.764	
O	 0.0952245536	 1.3331751618	 0.0901252545	-0.402624
C	 0.0714120323	-0.0044118765	 0.0641820791	 0.46998
N	 0.0797816066	-0.6021585306	-1.1289946684	-0.346944
C	 0.0554633117	-1.9329747343	-1.1130491562	 0.077332
N	 0.0238815012	-2.7234638788	-0.0416151985	-0.311893
C	 0.0167960677	-2.0865290912	 1.1162936594	 0.373448
F	-0.0143558019	-2.8448848644	 2.1994395122	-0.056693
C	 0.0392986844	-0.7117886796	 1.2656082661	-0.379524
H	 0.1153375296	 1.6238684743	-0.8333529283	 0.307823
H	 0.0619684274	-2.4282126366	-2.0803428657	 0.133768
H	 0.0326096756	-0.2249390338	 2.2302180055	 0.135328
197.1167	241.0988	358.6087	480.5078	484.5067	568.1203	570.4154	573.3825	719.9195	794.4024	838.8762	871.1694	994.9457	1002.1271	1004.9479	1161.568	1228.4947	1303.0682	1347.0941	1373.1429	1484.2259	1506.3647	1631.156	1648.3865	3175.7406	3238.9502	3758.1649
OC1=NC=NC(F)=C1	Oc1ncnc(F)c1	
InChI=1S/C4H3FN2O/c5-3-1-4(8)7-2-6-3/h1-2H,(H,6,7,8)	InChI=1S/C4H3FN2O/c5-3-1-4(8)7-2-6-3/h1-2H,(H,6,7,8)
