11
gdb 50794	5.55676	0.62875	0.56484	3.5996	76.71	-0.305	-0.1132	0.1918	1768.5427	0.064396	-451.543763	-451.535213	-451.534268	-451.578412	28.154	
N	-0.264848086	 1.3070147464	 0.0123805143	-0.411751
C	-0.0628366717	 0.069828816	 0.0029926602	 0.127654
O	-1.1791011878	-0.7506318768	 0.0094205974	-0.183735
C	-0.9803057453	-2.0933994915	-0.0002355611	 0.25971
O	 0.0814207388	-2.6545238741	-0.0139470406	-0.316532
C	-2.2526696221	-2.7814174293	 0.0084151976	-0.060702
C	-3.2713324033	-3.4294239533	 0.0148232874	 0.278885
C	-4.4295712155	-4.151970459	 0.0221770531	 0.207929
N	-5.4147357133	-4.7664261766	 0.0284319619	-0.310428
H	 0.6225143622	 1.8081341759	 0.0063238511	 0.251046
H	 0.8734405838	-0.4864207877	-0.0098123313	 0.157924
64.8228	78.7357	100.6932	155.1741	200.403	283.9262	325.4232	411.1366	492.97	557.7973	588.3988	618.3898	767.3701	852.4548	856.847	964.8919	1067.7922	1098.5049	1242.811	1261.642	1389.4557	1750.0261	1807.0105	2267.3959	2397.4105	3151.6269	3513.3726
N=COC(=O)C#CC#N	[NH][CH]OC(=O)C#CC#N	
InChI=1S/C5H2N2O2/c6-3-1-2-5(8)9-4-7/h4,7H	InChI=1S/C5H2N2O2/c6-3-1-2-5(8)9-4-7/h4,7H
