11
gdb 21910	7.79499	1.29081	1.10743	3.7112	56.94	-0.2749	-0.0853	0.1896	956.1944	0.071939	-434.536296	-434.529783	-434.528839	-434.567223	23.347	
O	 0.0737091327	 1.3481629052	 0.1088591492	-0.413196
C	 0.0682313458	 0.0108931989	 0.0706195571	 0.48559
N	 0.1043964421	-0.6590664281	-1.0606643547	-0.228324
O	 0.0850653137	-1.9984195633	-0.703130831	-0.195898
C	 0.0376647974	-2.0895324485	 0.638195988	 0.365066
C	 0.0089763315	-3.4201050214	 1.2644588035	 0.085027
O	 0.0247456469	-4.4634601134	 0.6611223214	-0.246508
C	 0.024332987	-0.8463456414	 1.2005871933	-0.414017
H	 0.1072142409	 1.67353161	-0.8012544428	 0.3188
H	-0.0296085851	-3.3736546714	 2.3732414159	 0.096092
H	-0.0107677529	-0.5776802866	 2.2427574401	 0.147368
102.4957	178.6215	244.7519	370.24	386.5379	451.9937	501.1715	643.5409	705.5696	710.2359	784.135	828.0116	980.2747	1002.277	1019.8986	1064.1528	1151.5523	1227.8839	1328.4124	1413.7036	1503.4995	1558.7722	1637.677	1806.9974	2911.9419	3286.0932	3777.1383
OC1=NOC(C=O)=C1	Oc1noc(C=O)c1	
InChI=1S/C4H3NO3/c6-2-3-1-4(7)5-8-3/h1-2H,(H,5,7)	InChI=1S/C4H3NO3/c6-2-3-1-4(7)5-8-3/h1-2H,(H,5,7)
