11
gdb 123285	10.28819	0.69154	0.64799	2.1007	85.45	-0.2537	-0.0624	0.1913	1567.5883	0.066664	-410.514906	-410.507623	-410.506679	-410.547334	25.973	
C	 0.080272158	-3.7360123497	-0.0191824703	-0.578038
C	 0.0442677318	-2.5289620547	-0.0119301551	 0.268433
C	 0.0051776608	-1.1721962179	-0.0038688236	-0.02801
C	-0.0408696855	 0.0377005154	 0.0034041251	 0.426462
C	-0.05716094	 1.4459927928	 0.0113835218	 0.092859
N	-1.1733688717	 2.1832100081	 0.0300305325	-0.234994
N	-0.6658875746	 3.4020228589	 0.0300747582	-0.112441
N	 0.661496083	 3.460738446	 0.0129654083	-0.092683
N	 1.0702834458	 2.2253160922	 0.0007928039	-0.249929
H	 0.111792676	-4.797695947	-0.0255426686	 0.201635
H	-1.2415656936	 4.2316930559	 0.0421814279	 0.306705
76.9398	88.2955	233.8171	243.4984	447.2779	457.6942	494.7958	553.2531	585.8954	593.2839	618.0476	642.8303	731.5869	804.7208	984.0482	1037.9401	1085.5401	1106.7219	1212.6721	1260.2137	1316.0905	1477.9946	1519.9952	2187.9474	2358.3028	3501.4795	3641.0362
C#CC#CC1=NNN=N1	C#CC#Cc1n[nH]nn1	
InChI=1S/C5H2N4/c1-2-3-4-5-6-8-9-7-5/h1H,(H,6,7,8,9)	InChI=1S/C5H2N4/c1-2-3-4-5-6-8-9-7-5/h1H,(H,6,7,8,9)
