11
gdb 21398	3.75353	2.47172	1.77793	2.6405	59.84	-0.2493	-0.1302	0.119	696.9145	0.073265	-389.702476	-389.696474	-389.69553	-389.732594	22.052	
N	-0.0686311109	 1.1430271941	-0.4467734867	-0.465775
C	-0.0125212236	 0.0319475583	 0.1479371076	 0.349439
N	 1.1715288724	-0.6007405014	 0.6072842026	-0.201513
C	 1.4076627442	-1.7845758978	 0.1993216972	 0.074568
N	 0.6902028383	-2.5430281683	-0.7673925764	-0.115595
N	-0.5658976069	-2.5690490556	-0.7971944173	-0.113046
C	-1.3528746775	-1.8414577724	 0.1406434257	 0.083397
N	-1.1873988207	-0.6476849122	 0.5461153423	-0.164344
H	 0.8729298078	 1.505857255	-0.6024953729	 0.23843
H	 2.3243291554	-2.2875819659	 0.5054898529	 0.156574
H	-2.2506088285	-2.3893962737	 0.4245041151	 0.157865
126.7436	234.8535	338.8155	347.1207	459.4694	482.2591	645.0185	690.8889	811.6567	830.0771	875.4988	903.5857	929.1101	966.9433	972.8261	1023.9327	1044.298	1291.5298	1373.5871	1400.643	1540.2644	1659.213	1676.8655	1746.6998	3149.296	3152.4161	3486.04
N=C1N=CN=NC=N1	[NH][C]1N=CN=NC=N1	
InChI=1S/C3H3N5/c4-3-5-1-7-8-2-6-3/h1-2,4H	InChI=1S/C3H3N5/c4-3-5-1-7-8-2-6-3/h1-2,4H
