10
gdb 23674	4.22771	1.81684	1.27074	0.9724	50.29	-0.2919	-0.0473	0.2447	806.7834	0.061327	-462.771586	-462.766039	-462.765095	-462.801548	20.489	
F	 0.0119193836	 0.0576831965	 0.0029502557	-0.049854
C	-0.0238333257	 1.3768028931	 0.0107184675	 0.38059
C	-1.2559896438	 2.0146926255	 0.0312128317	-0.430392
C	-1.1678645617	 3.3995112598	 0.0376669284	 0.38059
F	-2.2798973032	 4.1097414185	 0.0569051412	-0.049853
N	-0.035541985	 4.075871636	 0.0258584637	-0.300047
C	 1.0691744283	 3.3301186656	 0.0065796758	 0.080572
N	 1.1391391591	 1.9989703187	-0.0018009078	-0.300047
H	-2.1964494832	 1.4826424029	 0.0412006789	 0.145054
H	 2.0145769015	 3.8649650433	-0.003536505	 0.143387
199.9602	245.0962	362.8731	485.7378	492.4272	567.8767	573.6907	713.2559	789.2495	831.6659	871.8942	996.5871	1001.9398	1005.0122	1183.2546	1284.5427	1314.0505	1359.514	1461.5629	1503.4795	1622.0895	1630.7582	3183.4359	3239.6818
FC1=CC(F)=NC=N1	Fc1cc(F)ncn1	
InChI=1S/C4H2F2N2/c5-3-1-4(6)8-2-7-3/h1-2H	InChI=1S/C4H2F2N2/c5-3-1-4(6)8-2-7-3/h1-2H
