11
gdb 130852	2.36871	1.58757	0.95051	5.0554	70.68	-0.2751	-0.0981	0.177	1100.862	0.063511	-451.492079	-451.484519	-451.483574	-451.524551	26.776	
O	-0.0341881813	-0.0392125293	-0.0015145733	-0.245673
C	 0.0028464216	 1.1662423075	 0.0089308638	 0.064367
C	 1.2357846396	 1.9594773815	 0.0021185002	 0.025312
C	 1.390222138	 3.3300865524	 0.0127027137	 0.289498
O	 2.6871505945	 3.6170799191	 0.0002271249	-0.230623
N	 3.376099105	 2.3243415208	-0.0186779421	 0.001255
N	 2.5101920521	 1.4319007332	-0.0169902512	-0.118169
C	 0.445835186	 4.3697775592	 0.0325688682	 0.272129
C	-0.372951526	 5.2508428147	 0.0495915211	-0.380287
H	-0.917747092	 1.786545569	 0.0247467187	 0.093373
H	-1.0947522575	 6.031781562	 0.0649961862	 0.228817
117.1647	132.5132	167.285	220.0172	277.4694	415.7129	443.5926	493.2667	579.4249	638.521	667.7131	687.5566	695.3451	764.7972	802.3314	993.9688	1032.7262	1152.8885	1254.8387	1383.4006	1426.0888	1512.775	1565.4142	1805.9147	2242.7553	2914.2451	3490.4816
O=CC1=C(ON=N1)C#C	O=Cc1c(onn1)C#C	
InChI=1S/C5H2N2O2/c1-2-5-4(3-8)6-7-9-5/h1,3H	InChI=1S/C5H2N2O2/c1-2-5-4(3-8)6-7-9-5/h1,3H
