11
gdb 128875	2.0086	1.8969	0.97558	4.6241	71.36	-0.2911	-0.0845	0.2065	1071.7106	0.06884	-410.633893	-410.626857	-410.625913	-410.665881	25.06	
N	 0.1952199257	-1.145574323	-0.0059654446	-0.322695
C	 0.0588640893	 0.0037442128	 0.0021932725	 0.24528
C	-0.0761622044	 1.4103837188	 0.011829499	 0.243761
C	-1.2034429813	 2.2331793828	 0.0322599157	-0.002883
C	-0.6778458453	 3.5479482098	 0.0321012817	-0.057984
N	 0.6485221193	 3.5433027582	 0.0132733398	-0.183623
N	 0.9910339491	 2.2501777579	 0.0013134034	-0.268469
C	-2.5611005166	 1.8379147864	 0.0492730732	 0.210932
N	-3.6775757265	 1.5334979178	 0.0633850604	-0.329919
H	-1.2260064668	 4.4769637777	 0.0449745516	 0.160223
H	 1.9654163276	 1.9904761508	-0.0139268727	 0.305377
105.1594	163.8778	188.5414	207.8522	469.8652	486.2801	514.502	543.2003	581.0354	644.2298	647.9666	692.0038	740.8739	902.1414	956.146	1145.8404	1170.1407	1235.8652	1300.5193	1378.1193	1430.9113	1488.1299	1591.5825	2352.4654	2358.257	3270.7885	3651.1183
N#CC1=C(C=NN1)C#N	N#Cc1c(cn[nH]1)C#N	
InChI=1S/C5H2N4/c6-1-4-3-8-9-5(4)2-7/h3H,(H,8,9)	InChI=1S/C5H2N4/c6-1-4-3-8-9-5(4)2-7/h3H,(H,8,9)
