10
gdb 21876	4.23264	2.07251	1.39127	3.4265	51.74	-0.2711	-0.0997	0.1714	773.4256	0.062395	-446.789041	-446.783153	-446.782209	-446.819332	21.482	
O	 0.0042157326	 1.2839469134	 0.008073658	-0.359379
C	-0.0367292656	-0.0405223364	 0.0007720547	 0.504737
N	-1.1899404692	-0.626335087	 0.0040272619	-0.346946
C	-1.1806000423	-2.0015583849	-0.0037002423	 0.472549
O	-2.1319053505	-2.7374464575	-0.0023990406	-0.352843
N	 0.1357199915	-2.5608235669	-0.0142156572	-0.243911
N	 1.276439196	-1.9003585001	-0.0169495423	-0.004823
N	 1.2314224874	-0.6257883451	-0.0095849068	-0.291383
H	 0.9374106234	 1.5440771421	 0.0043094504	 0.324214
H	 0.2244212465	-3.5693059775	-0.0203413658	 0.297785
126.8278	191.2725	388.5453	433.367	538.2441	570.3894	589.8697	595.4389	727.3295	772.1494	774.5853	823.5129	950.9792	1024.2309	1164.1554	1197.5281	1280.1134	1396.8916	1418.4155	1533.6423	1676.8784	1858.6604	3594.5038	3760.73
OC1=NC(=O)NN=N1	Oc1nc(=O)[nH]nn1	
InChI=1S/C2H2N4O2/c7-1-3-2(8)5-6-4-1/h(H2,3,4,5,7,8)	InChI=1S/C2H2N4O2/c7-1-3-2(8)5-6-4-1/h(H2,3,4,5,7,8)
