11
gdb 133428	3.1703	1.44521	0.99269	0.7434	58.09	-0.2377	-0.0859	0.1518	1025.2148	0.066134	-534.118513	-534.111755	-534.110811	-534.150089	25.182	
F	 0.0383213981	 0.1061730341	-0.291888445	-0.046409
C	-0.0219208052	 1.3968104024	-0.0458296466	 0.377396
N	-1.1845463979	 1.926292987	 0.0744114233	-0.249048
N	-1.1803170426	 3.2557290403	 0.3262437919	-0.261847
C	-0.067973096	 4.0687298439	 0.4612524518	 0.276332
N	-0.17472419	 5.3188175033	 0.7000371595	-0.552783
C	 1.1526849718	 3.2644825284	 0.2878785121	 0.304505
F	 2.2789025473	 3.9339593447	 0.3952312428	-0.033368
N	 1.1965879123	 2.01362767	 0.050029427	-0.341384
H	-2.0915707642	 3.6793991035	 0.4221644361	 0.290519
H	 0.7448013764	 5.7482942725	 0.7656663671	 0.236087
91.3672	226.8364	319.199	340.9802	376.711	437.6232	507.3835	547.6533	611.9247	613.0192	704.5339	727.5566	751.7276	813.4559	832.7256	1013.1675	1096.0261	1261.3695	1296.6052	1391.1373	1416.4399	1467.0442	1629.9798	1682.6283	1714.5322	3531.9568	3625.9461
FC1=NNC(=N)C(F)=N1	FC1=NN[C@@H]([NH])C(=N1)F	
InChI=1S/C3H2F2N4/c4-1-2(6)8-9-3(5)7-1/h(H2,6,8)	InChI=1S/C3H3F2N4/c4-1-2(6)8-9-3(5)7-1/h2,6,8H/t2-/m1/s1
