11
gdb 130565	3.68434	1.21492	0.91364	1.4842	64.1	-0.3086	-0.1099	0.1987	1127.3657	0.066132	-451.552662	-451.545479	-451.544535	-451.585192	24.902	
O	 0.0280216951	-0.0592556975	 0.0028482585	-0.286213
C	-0.0417516775	 1.1485441799	 0.0063239773	 0.232508
C	 1.1865254203	 1.9749376837	 0.000645545	 0.223437
N	 2.1353820174	 2.635307294	-0.0036976583	-0.315274
C	-1.2855694328	 1.9057621915	 0.0165409339	 0.054449
C	-1.4822785185	 3.2610847144	 0.0214079975	 0.011409
O	-2.7766259443	 3.539561893	 0.0307617913	-0.154509
N	-3.5112935004	 2.3374623929	 0.03240842	-0.108216
C	-2.6186781417	 1.3886947265	 0.0239452428	-0.031389
H	-0.8030204051	 4.1006523105	 0.0191429755	 0.198545
H	-2.9291323525	 0.3542202511	 0.0232407764	 0.175252
77.697	109.9868	179.136	233.6454	313.1224	461.4104	484.4682	603.9936	642.2237	668.7746	783.2605	843.8062	894.4459	925.8479	938.5973	955.8773	1054.9046	1176.3976	1207.8979	1320.6876	1403.2893	1498.4757	1616.5522	1765.052	2341.9918	3262.648	3264.4997
O=C(C#N)C1=CON=C1	O=C(C#N)c1conc1	
InChI=1S/C5H2N2O2/c6-1-5(8)4-2-7-9-3-4/h2-3H	InChI=1S/C5H2N2O2/c6-1-5(8)4-2-7-9-3-4/h2-3H
