11
gdb 23639	4.11146	2.00662	1.34848	3.4093	55.71	-0.2468	-0.0614	0.1855	798.2902	0.074973	-434.915822	-434.909969	-434.909025	-434.946077	21.671	
F	 0.0092600249	 0.0973504819	 0.0033020906	-0.041803
C	-0.0437927171	 1.4100541335	 0.011039839	 0.339807
N	-1.2108733234	 1.9478906777	 0.0300730034	-0.356494
C	-1.2741500813	 3.3350040715	 0.0386479287	 0.426534
N	-2.3073176472	 4.0727723575	 0.0568957402	-0.55877
N	-0.0098566891	 3.9806160316	 0.0248595384	-0.286107
C	 1.1351282422	 3.2880385663	 0.0053620927	 0.126294
N	 1.1942014004	 1.9875227766	-0.002635203	-0.328122
H	-3.1392827002	 3.4855863191	 0.0650466537	 0.235348
H	-0.0245722605	 4.9908733007	 0.0306389316	 0.285949
H	 2.0556270512	 3.8663369037	-0.0040395752	 0.157365
135.1901	202.1368	381.118	426.0714	541.3467	560.6267	581.8057	677.7815	746.2215	803.1403	805.0748	858.8183	961.5644	985.355	1004.223	1123.6216	1195.487	1298.7571	1365.6318	1420.519	1487.8383	1592.7974	1685.1229	1756.3949	3177.0886	3520.4544	3615.2828
FC1=NC(=N)NC=N1	FC1=NCNC(=N1)[NH]	
InChI=1S/C3H3FN4/c4-2-6-1-7-3(5)8-2/h1H,(H2,5,6,7,8)	InChI=1S/C3H4FN4/c4-2-6-1-7-3(5)8-2/h5H,1H2,(H,6,7,8)
