10
gdb 21620	2.33213	1.32128	0.87804	3.7752	49.41	-0.2783	-0.0114	0.2669	1178.1274	0.055868	-446.88987	-446.879535	-446.878591	-446.930971	28.99	
N	-0.1477912632	 1.5716687083	 0.0650737843	-0.528071
C	-0.0867020072	 0.2519808161	-0.2349720008	 0.45106
N	-1.3772920033	-0.3394939964	-0.1162271734	-0.457452
C	-1.7144759045	-1.494422821	-0.2986027184	 0.603103
O	-2.15755021	-2.5590490048	-0.4451384924	-0.267311
N	 1.1126082218	-3.1634973382	 0.7604047099	 0.000108
N	 2.098027617	-3.5567550824	 0.4755952973	-0.003527
O	 0.9110506826	-0.3462100639	-0.558625184	-0.351891
H	 0.6978434725	 2.1117723018	 0.0168426666	 0.277499
H	-1.0149989158	 2.0073729106	 0.322348971	 0.276483
14.2949	17.8146	37.5485	47.4158	85.2371	91.9531	124.7887	127.8373	444.5921	551.1311	579.3791	631.0486	688.4991	758.7829	816.3764	1105.9468	1312.3879	1472.9691	1609.4575	1824.6756	2353.5191	2433.0621	3627.7085	3766.9906	14.2943	17.8049	37.5429	47.414	85.2346	91.9532	124.7955	127.8372	444.592	551.1313	579.3792	631.0489	688.4991	758.783	816.3767	1105.9461	1312.3874	1472.969	1609.456	1824.6746	2353.5196	2433.0621	3627.7089	3766.991
NC1=NC(=O)N=NO1	NC(=O)N=C=O.N#N	
InChI=1S/C2H2N4O2/c3-1-4-2(7)5-6-8-1/h(H2,3,4,7)	InChI=1S/C2H2N2O2.N2/c3-2(6)4-1-5;1-2/h(H2,3,6);
