10
gdb 21884	7.89716	1.39851	1.18811	2.4816	52.39	-0.2862	-0.0911	0.1951	888.3005	0.061015	-446.769004	-446.762749	-446.761805	-446.799656	21.905	
O	 0.0686673326	 1.2877506145	-0.1579087753	-0.386039
C	 0.0651545284	-0.0367787192	-0.0862099495	 0.502059
N	 0.016243575	-0.8193010518	-1.1406491575	-0.304723
N	 0.0355185506	-2.0314418149	-0.5483686463	 0.06831
C	-0.0031865295	-3.230105005	-1.315467255	 0.21483
O	 0.0117156958	-4.3201280046	-0.8350670057	-0.224394
N	 0.0928908812	-1.9826469984	 0.7894540473	-0.075765
N	 0.1123362775	-0.7250715473	 1.0985648677	-0.26667
H	 0.1089150466	 1.6303834818	 0.7447363062	 0.328439
H	-0.0478575883	-2.9780805751	-2.385797932	 0.143954
112.5485	211.5798	235.251	367.0274	413.8058	421.3341	534.9346	678.2928	769.6013	777.9237	820.9266	981.9432	1030.7141	1101.7794	1193.5438	1215.0327	1280.8847	1388.8286	1413.4481	1467.7473	1664.8361	1862.8009	3041.9571	3795.5429
OC1=NN(C=O)N=N1	Oc1nn(C=O)nn1	
InChI=1S/C2H2N4O2/c7-1-6-4-2(8)3-5-6/h1H,(H,4,8)	InChI=1S/C2H2N4O2/c7-1-6-4-2(8)3-5-6/h1H,(H,4,8)
