9
gdb 130665	2.16596	0.91258	0.66819	2.3103	56.26	-0.3264	-0.1109	0.2155	1492.4597	0.037275	-483.751542	-483.741116	-483.740172	-483.793369	29.227	
O	 0.2854102457	-0.025684199	 0.3274481484	-0.230141
C	 0.8502104572	 0.97406298	 0.1927407059	 0.625356
N	-2.2131510794	 2.231318992	-0.3606124472	-0.009802
N	-3.1355518522	 2.8265955117	-0.4016619797	 0.009788
O	 0.3525412877	 3.796242343	 0.6979431938	-0.26801
C	 1.3446827456	 3.3020241054	 0.2350933219	 0.301683
N	 1.5655908883	 1.9487046051	 0.0010244257	-0.412092
C	 2.5026389385	 4.1099904426	-0.1584921206	 0.28239
N	 3.3890590487	 4.7892924092	-0.4538841183	-0.299171
7.0203	24.8674	41.2444	48.5364	83.3263	88.2521	107.3945	206.4996	305.5935	501.83	567.5506	632.9916	648.9892	754.2124	815.4558	1109.3555	1490.3678	1786.755	2344.8637	2363.2151	2433.7222
O=C1N=NOC(=N1)C#N	O=C=NC(=O)C#N.N#N	
InChI=1S/C3N4O2/c4-1-2-5-3(8)6-7-9-2	InChI=1S/C3N2O2.N2/c4-1-3(7)5-2-6;1-2
