11
gdb 9026	4.80578	0.92498	0.80003	3.9041	69.42	-0.2948	-0.07	0.2248	1293.4249	0.072245	-356.420061	-356.412079	-356.411134	-356.453094	27.063	
N	-0.0415508605	 1.4872434898	 0.0720762186	-0.47582
C	-0.0226866883	 0.0249013444	-0.0236838606	-0.330217
C	-1.3909286934	-0.5008837258	 0.1507434114	 0.326914
N	-2.460204392	-0.9147240902	 0.2819766209	-0.297684
C	 0.5676410031	-0.5069711881	-1.2634972912	 0.178621
C	 1.0914250897	-0.8784509498	-2.2859363405	-0.000089
C	 1.6819333966	-1.3002202179	-3.4432551357	 0.222838
N	 2.1875065589	-1.6554224931	-4.4263690503	-0.321535
H	 0.9106633415	 1.8368226387	 0.0185712382	 0.256223
H	-0.5509019061	 1.879003426	-0.7150115194	 0.258707
H	 0.5710191004	-0.3503322241	 0.8213272186	 0.182042
72.2056	103.4181	182.8804	225.4416	251.1422	278.9531	377.2945	464.098	517.8446	571.4125	579.2189	609.544	749.7457	870.0324	898.4559	1111.6005	1149.9671	1192.1301	1307.8613	1384.5799	1659.9975	2266.2455	2374.908	2403.1582	3026.7386	3498.6364	3584.2758
NC(C#N)C#CC#N	N[C@@H](C#N)C#CC#N	
InChI=1S/C5H3N3/c6-3-1-2-5(8)4-7/h5H,8H2	InChI=1S/C5H3N3/c6-3-1-2-5(8)4-7/h5H,8H2/t5-/m1/s1
