11
gdb 129455	4.55725	1.14149	0.91284	4.644	54.27	-0.2969	-0.078	0.2189	1137.5001	0.065262	-525.860885	-525.853335	-525.852391	-525.893805	26.498	
N	-0.0199745414	 1.3097985613	 0.0057708866	-0.531814
C	 0.0571003497	-0.0415653345	 0.0009746488	 0.343373
O	 1.0697657395	-0.7028696077	-0.0093734829	-0.326521
C	-1.2949413348	-0.7043965556	 0.0102088395	 0.368084
N	-2.4270318222	-0.1023434176	 0.0216942537	-0.172371
O	-3.3795551854	-1.1377951628	 0.0263816871	-0.226582
C	-2.7269592706	-2.3396223216	 0.0170311402	 0.519996
O	-3.2133701822	-3.4158384431	 0.0176381373	-0.339995
O	-1.3719014042	-2.0478463693	 0.0065342505	-0.207279
H	 0.8363850621	 1.838691649	 0.0006370977	 0.28224
H	-0.9060838804	 1.787977372	 0.0149097414	 0.29087
49.7483	140.6131	169.9365	268.4398	293.6569	367.373	445.5152	527.1498	578.3506	646.7181	652.5422	763.9789	772.5102	803.1336	889.5199	937.3171	1001.7131	1098.3759	1126.574	1284.8273	1434.2225	1616.3923	1655.4457	1824.1748	1967.3003	3597.1866	3734.1471
NC(=O)C1=NOC(=O)O1	NC(=O)c1noc(=O)o1	
InChI=1S/C3H2N2O4/c4-1(6)2-5-9-3(7)8-2/h(H2,4,6)	InChI=1S/C3H2N2O4/c4-1(6)2-5-9-3(7)8-2/h(H2,4,6)
