11
gdb 21521	2.99104	1.86287	1.15115	3.2829	60.04	-0.2624	-0.0805	0.1819	925.5421	0.07016	-430.737425	-430.729433	-430.728489	-430.770362	26.976	
N	-0.1116695443	 1.486489956	-0.0504280861	-0.545265
C	 0.2583232505	 0.1664485945	-0.0766403577	 0.371383
C	-0.8629875737	-0.8060831032	-0.0047405488	 0.022494
C	-2.3040541896	-0.5923981217	-0.0480198227	 0.105547
O	-3.1442916315	-1.4630051894	 0.0150692486	-0.300823
N	-0.4727144354	-2.0705569966	 0.0610424769	 0.258556
N	-0.1420398415	-3.1397632319	 0.1178059296	-0.151142
O	 1.4133748928	-0.1977210125	-0.185617006	-0.373359
H	 0.6543919011	 2.1386084253	 0.0219007751	 0.271788
H	-0.9889051289	 1.7756343257	 0.3490675357	 0.263235
H	-2.5839235295	 0.4759085338	-0.1612180147	 0.077584
62.6766	130.1188	153.8265	188.7617	260.7262	343.3548	382.2339	434.9037	493.5376	511.8567	585.1639	678.2751	758.9968	817.4821	1005.2524	1085.3878	1167.8207	1284.5811	1376.1806	1439.5828	1619.5549	1762.4721	1779.9884	2268.2379	2904.2972	3588.0905	3713.391
NC1=C(C=O)N=NO1	NC(=O)[C](C=O)[N][N]	
InChI=1S/C3H3N3O2/c4-3-2(1-7)5-6-8-3/h1H,4H2	InChI=1S/C3H3N3O2/c4-3(8)2(1-7)6-5/h1H,(H2,4,8)
