11
gdb 129147	2.0796	0.91532	0.64715	3.7442	60.9	-0.2669	-0.1047	0.1622	1552.8181	0.058088	-484.918598	-484.907347	-484.906403	-484.960417	32.59	
N	-0.0892665566	 1.3859992985	 0.1034536135	-0.508543
C	-0.6797234082	 0.383364777	 0.4158223084	 0.543304
N	 2.4187733023	-1.0183431757	-0.2102794463	-0.01339
N	 2.8930141846	-1.9315343362	-0.5945727138	 0.012332
O	-0.5735956978	-2.3130454852	-0.4762409554	-0.278494
C	-1.4581793703	-1.8177994135	 0.1691840063	 0.28327
C	-2.7577209374	-2.5555632583	 0.5360770214	 0.099418
O	-2.9855177341	-3.6686044209	 0.1585313677	-0.201231
N	-1.4550847873	-0.5240073995	 0.7271228702	-0.359418
H	 0.8762217906	 1.5909666666	 0.3109404309	 0.310714
H	-3.4517798457	-1.9651299628	 1.1684289771	 0.112037
18.2041	34.1005	42.3848	43.181	57.4359	77.0587	103.1463	142.0609	265.9342	362.4601	431.8168	524.5282	545.4794	596.6237	745.352	803.054	890.3219	1018.618	1069.8274	1377.1728	1431.0253	1793.025	1848.7991	2247.2835	2434.708	2935.2264	3658.9568
N=C1N=NOC(C=O)=N1	[NH][C][N]C(=O)C=O.N#N	
InChI=1S/C3H2N4O2/c4-3-5-2(1-8)9-7-6-3/h1,4H	InChI=1S/C3H2N2O2.N2/c4-2-5-3(7)1-6;1-2/h1,4H;
