9
gdb 14563	0	0.56788	0.56788	5.3197	107.13	-0.2681	-0.102	0.1661	1740.2182	0.047967	-321.866369	-321.859002	-321.858058	-321.893193	25.334	
C	 0.0856836469	-6.3148448625	-0.0358983555	-0.692319
C	 0.0709769902	-5.1053950191	-0.0260907081	 0.150824
C	 0.0543537208	-3.7557065683	-0.0166296791	-0.118763
C	 0.0378010332	-2.5355646644	-0.0100325508	 0.729579
C	 0.0191997477	-1.1933031288	-0.0030939597	-0.37083
C	 0.001688293	 0.0250029584	 0.002446015	 0.363244
C	-0.017089637	 1.3821269097	 0.0092333335	 0.046412
N	-0.0334690151	 2.5462758164	 0.0143817115	-0.319619
H	 0.0999683301	-7.3771968415	-0.0419357864	 0.211472
62.8949	161.1597	169.2142	298.2069	299.0327	483.7785	487.985	488.2516	555.5799	557.7774	604.1672	606.6003	726.3434	728.7215	939.24	1347.5646	2141.4891	2249.1789	2299.2994	2349.841	3498.7848
C#CC#CC#CC#N	C#CC#CC#CC#N	
InChI=1S/C7HN/c1-2-3-4-5-6-7-8/h1H	InChI=1S/C7HN/c1-2-3-4-5-6-7-8/h1H
