11
gdb 132257	3.62903	1.26026	0.93542	3.7161	65.81	-0.2969	-0.1006	0.1963	1096.1075	0.067462	-455.758555	-455.751985	-455.75104	-455.789997	23.866	
F	-0.0055557835	 0.0787233868	 0.002891302	-0.040066
C	-0.0160505138	 1.392020684	 0.011224191	 0.35538
N	-1.2119975296	 1.9495885514	 0.0300592315	-0.347147
C	-1.2078165736	 3.28889645	 0.0368006367	 0.227055
C	-0.0315515618	 4.0365363437	 0.0245943632	-0.175918
C	 1.1523831774	 3.3060459385	 0.0045101397	 0.026559
N	 1.1736969524	 1.9732140309	-0.0025543011	-0.290544
C	-2.4875312644	 3.9494932746	 0.0576706029	 0.256164
N	-3.4951560006	 4.5156192546	 0.0743243212	-0.305241
H	-0.0444330641	 5.1178190116	 0.0303350817	 0.145901
H	 2.1175122617	 3.8049076539	-0.0062360487	 0.147857
140.8655	154.7675	199.3722	399.0506	447.9553	478.7485	488.7002	593.3741	607.2713	723.9772	750.4241	818.3706	878.0766	990.7594	1012.2148	1016.0029	1118.4338	1249.1475	1274.3545	1356.4873	1454.322	1477.196	1597.4461	1612.5979	2360.0259	3177.5994	3234.9954
FC1=NC(=CC=N1)C#N	Fc1nc(ccn1)C#N	
InChI=1S/C5H2FN3/c6-5-8-2-1-4(3-7)9-5/h1-2H	InChI=1S/C5H2FN3/c6-5-8-2-1-4(3-7)9-5/h1-2H
