10
gdb 5676	5.63394	2.39327	1.67973	2.324	52.06	-0.2412	-0.02	0.2211	665.4703	0.063494	-413.467355	-413.462401	-413.461456	-413.496425	18.771	
O	-0.10120931	 1.3143100053	 0.0100375891	-0.208515
C	 1.2488274752	 1.7066145012	-0.0005312837	 0.043884
N	 2.1227986415	 0.7527176421	-0.0145001755	-0.316628
C	 1.3312975622	-0.38681866	-0.0129443905	 0.232846
C	 0.0383377257	-0.0143993315	 0.0015724762	 0.398738
O	-0.7866859863	-1.0652776783	 0.0038015859	-0.208515
C	 0.1477786584	-2.1156024792	-0.0105290339	 0.043885
N	 1.3952933421	-1.7727685956	-0.021124218	-0.316628
H	 1.4060612149	 2.772370583	 0.0037873432	 0.165466
H	-0.2860551237	-3.101687887	-0.0115781628	 0.165466
200.0569	365.9614	495.2035	609.5483	651.2003	707.3452	759.3061	761.7394	782.7883	802.5803	867.0341	924.2444	998.1515	1018.1856	1161.8123	1256.6579	1326.9645	1396.8334	1506.5	1526.8026	1530.1539	1628.4973	3296.3495	3296.6892
O1C=NC2=C1OC=N2	o1cnc2c1ocn2	
InChI=1S/C4H2N2O2/c1-5-3-4(7-1)8-2-6-3/h1-2H	InChI=1S/C4H2N2O2/c1-5-3-4(7-1)8-2-6-3/h1-2H
