11
gdb 21409	7.49315	1.33375	1.13222	3.1569	56.94	-0.2459	-0.0984	0.1475	942.3165	0.071748	-430.706296	-430.699487	-430.698543	-430.737646	23.965	
N	-0.1596480485	 1.3150069332	 0.0090825409	-0.595231
C	-0.0295973293	 0.0625083842	 0.0013846936	 0.498866
N	-1.0396296304	-0.885071428	 0.001937887	-0.39209
C	-0.4581379425	-2.1257808756	-0.0083386375	 0.329926
C	-1.2361382264	-3.3929275184	-0.010933514	 0.100587
O	-0.7420344659	-4.4868981735	-0.0198260876	-0.210862
N	 0.8355684352	-2.0623111672	-0.0153659026	-0.138306
O	 1.1338189533	-0.6883668388	-0.0094522801	-0.226814
H	 0.7421909278	 1.7840329164	 0.0065003789	 0.243402
H	-2.0180569004	-0.65495917	 0.0087524231	 0.294107
H	-2.3369479129	-3.2374364122	-0.0036796218	 0.096416
85.7222	170.8415	188.101	289.508	397.8035	405.2214	497.9934	642.7473	720.2228	731.106	763.251	767.7491	936.8785	948.9743	1018.9426	1026.1082	1076.0501	1226.6242	1300.7367	1419.4036	1496.4899	1605.5494	1809.7002	1833.3869	2898.1134	3546.7362	3689.5709
N=C1NC(C=O)=NO1	[NH][C@@H]1NC(=NO1)C=O	
InChI=1S/C3H3N3O2/c4-3-5-2(1-7)6-8-3/h1H,(H2,4,5,6)	InChI=1S/C3H4N3O2/c4-3-5-2(1-7)6-8-3/h1,3-4H,(H,5,6)/t3-/m1/s1
