9
gdb 23822	2.43229	1.27222	0.86148	2.9314	46.92	-0.297	-0.0523	0.2447	1159.9691	0.042091	-470.873097	-470.863294	-470.86235	-470.912945	27.736	
F	-0.3258303165	-0.2210334179	 0.097659638	-0.056258
C	-0.2162797339	 1.0982888809	 0.1891937596	 0.398802
N	-1.4738677734	 1.6626162943	 0.0277442334	-0.380303
C	-1.7417019884	 2.8380336628	 0.2880131843	 0.55123
N	-2.1749784069	 3.9072115182	 0.6323079091	-0.503765
N	 0.9291591206	 4.6867722295	-0.8099628456	-0.012612
N	 2.0220805186	 4.6612257519	-0.9164580342	 0.011932
O	 0.8315108325	 1.6378459227	 0.3545747054	-0.32017
H	-2.0612674026	 4.7750675377	 0.13065049	 0.311143
17.3085	37.5768	41.5506	43.8261	62.4393	87.3408	139.0899	396.8778	496.6663	533.9849	570.2085	695.5229	773.2243	802.812	904.7549	1197.5963	1444.1257	1873.4189	2266.2991	2434.6344	3656.3985	17.3108	37.577	41.5509	43.826	62.4393	87.3403	139.0897	396.8772	496.6663	533.9849	570.2082	695.5229	773.2242	802.8118	904.7549	1197.5964	1444.1256	1873.4192	2266.2996	2434.6344	3656.3985
FC1=NC(=N)N=NO1	FC(=O)[N][C][NH].N#N	
InChI=1S/C2HFN4O/c3-1-5-2(4)6-7-8-1/h4H	InChI=1S/C2HFN2O.N2/c3-2(6)5-1-4;1-2/h4H;
