11
gdb 123280	9.73794	0.67535	0.63155	3.3221	86.74	-0.2474	-0.0628	0.1846	1599.6474	0.064582	-414.328469	-414.321018	-414.320074	-414.361006	26.864	
C	 0.0958937101	-3.7496295897	-0.0199241022	-0.582787
C	 0.0557506461	-2.5423583172	-0.012539816	 0.272616
C	 0.0116058863	-1.18608578	-0.0042563742	-0.122761
C	-0.0383618937	 0.0250444984	 0.0032810851	 0.432768
C	-0.0802755134	 1.4273877088	 0.0118086062	 0.040443
C	-1.1453894124	 2.2868686168	 0.0311047877	-0.082002
O	-0.7116729069	 3.5325553876	 0.0323119329	-0.155143
N	 0.7418765192	 3.4467980301	 0.0120689985	-0.009919
N	 1.0514309746	 2.2397141189	 0.0010568329	-0.176211
H	 0.1326433748	-4.8111384084	-0.026440368	 0.201155
H	-2.2100878046	 2.1200994948	 0.0445881723	 0.18184
77.3756	88.1016	240.2969	240.4118	437.8248	456.2426	487.1303	519.7831	562.706	590.9914	615.014	630.2324	650.8377	731.0098	869.1532	942.7732	978.3084	1057.1647	1159.3023	1272.3231	1331.3941	1502.0657	1585.9009	2185.3255	2349.198	3286.2665	3501.0741
C#CC#CC1=CON=N1	C#CC#Cc1conn1	
InChI=1S/C6H2N2O/c1-2-3-4-6-5-9-8-7-6/h1,5H	InChI=1S/C6H2N2O/c1-2-3-4-6-5-9-8-7-6/h1,5H
