10
gdb 24902	3.78056	1.32873	0.98318	2.4398	62.65	-0.3201	-0.1357	0.1843	1051.6111	0.054679	-467.652176	-467.645277	-467.644332	-467.684246	24.002	
O	-0.085466239	-0.0106285763	 0.0040538033	-0.282722
C	 0.040092573	 1.1655020925	 0.0085990684	 0.470548
O	-1.2001713999	 1.9421414514	 0.0298560857	-0.224723
C	-1.1219785093	 3.2619217087	 0.0360863517	 0.350194
N	-0.039486136	 3.9628634467	 0.0251269803	-0.3033
C	 1.1082258336	 3.2005221653	 0.0051151042	 0.08704
N	 1.1980498637	 1.9092299765	-0.0031058218	-0.283867
C	-2.4088777352	 3.914409891	 0.0572810114	 0.307646
N	-3.4399144126	 4.4346902414	 0.0742561146	-0.286268
H	 2.0352769816	 3.7690190027	-0.0041408678	 0.165453
90.7864	125.5291	154.8501	333.4552	444.4945	453.4326	487.8084	553.7607	591.881	734.3696	756.809	794.5615	810.2009	933.4573	1030.3752	1035.9021	1229.8586	1325.3052	1422.7407	1549.8027	1664.0053	1932.291	2369.1352	3176.6379
O=C1OC(=NC=N1)C#N	O=c1oc(ncn1)C#N	
InChI=1S/C4HN3O2/c5-1-3-6-2-7-4(8)9-3/h2H	InChI=1S/C4HN3O2/c5-1-3-6-2-7-4(8)9-3/h2H
