11
gdb 132392	2.02055	1.95097	0.99257	4.0142	55.26	-0.2753	-0.0305	0.2449	1026.7388	0.066804	-534.201548	-534.194634	-534.19369	-534.233185	25.231	
N	-0.0158480334	 1.316483933	 0.008118498	-0.54982
C	 0.0023504047	-0.0250624727	 0.0006587942	 0.473618
N	-1.1853237927	-0.6629041023	 0.0037575023	-0.369084
C	-1.0672353309	-1.9708731114	-0.0041809724	 0.352669
F	-2.1901516344	-2.6485049979	-0.0015941561	-0.037615
N	 0.038642521	-2.7007689518	-0.0143272636	-0.379306
C	 1.1243161569	-1.9410812189	-0.0160416602	 0.352668
F	 2.2651958466	-2.5879345271	-0.0263771551	-0.037615
N	 1.2068854205	-0.6303830956	-0.0093895901	-0.369083
H	 0.8513957128	 1.8233675562	 0.0060789559	 0.281784
H	-0.8965233811	 1.7995999885	 0.0156887071	 0.281784
188.9546	206.4625	206.794	220.8099	345.6792	384.4129	576.9821	578.5241	586.0258	626.9381	663.1967	761.7041	765.3171	843.7412	990.8485	1030.3477	1118.819	1156.8933	1304.141	1465.8095	1466.8485	1534.3614	1593.4441	1643.3503	1667.2853	3628.6975	3767.3889
NC1=NC(F)=NC(F)=N1	Nc1nc(F)nc(F)n1	
InChI=1S/C3H2F2N4/c4-1-7-2(5)9-3(6)8-1/h(H2,6,7,8,9)	InChI=1S/C3H2F2N4/c4-1-7-2(5)9-3(6)8-1/h(H2,6,7,8,9)
