11
gdb 23698	4.1106	1.99608	1.34363	1.1888	55.87	-0.2483	-0.0586	0.1897	799.9234	0.074698	-434.912058	-434.906151	-434.905206	-434.942376	21.837	
F	 0.0739011348	 0.0799743341	 0.0029867341	-0.039359
C	-0.046939366	 1.3873212661	 0.0113848592	 0.439075
N	-1.2127181133	 1.9283422056	 0.0298201802	-0.357787
C	-1.1582961333	 3.3079341313	 0.0362820866	 0.072635
N	-0.1139265632	 4.0719310849	 0.0262366597	-0.287226
C	 1.1401286149	 3.4692207564	 0.0062990983	 0.425995
N	 2.2782073028	 4.0316561202	-0.0062406313	-0.551038
N	 1.1153177278	 2.0474889038	-0.0007177888	-0.368391
H	-2.1317229042	 3.7930489726	 0.0518515018	 0.139634
H	 2.1467879569	 5.0418100912	 0.0006636381	 0.236042
H	 2.0008808727	 1.5595385038	-0.0151616579	 0.29042
126.1089	209.4881	364.913	428.347	503.0685	566.7629	593.76	644.5941	742.3201	781.3248	818.5158	865.9789	939.9634	1018.9553	1026.7412	1059.5178	1254.5158	1272.775	1313.0617	1422.1473	1518.6366	1586.7084	1690.1546	1749.6194	3167.1769	3517.3238	3605.9555
FC1=NC=NC(=N)N1	FC1=NCN=C([NH])N1	
InChI=1S/C3H3FN4/c4-2-6-1-7-3(5)8-2/h1H,(H2,5,6,7,8)	InChI=1S/C3H4FN4/c4-2-6-1-7-3(5)8-2/h5H,1H2,(H,6,7,8)
