11
gdb 130888	7.50297	0.89163	0.79692	3.0484	61.64	-0.2905	-0.1197	0.1708	1283.4354	0.064515	-488.68135	-488.673903	-488.672959	-488.714156	24.947	
O	-0.0425997599	 0.0072268085	-0.0012662372	-0.218672
C	-0.0030274189	 1.2079154423	 0.0083013704	 0.085869
C	 1.2626404792	 1.9875987409	 0.001705944	 0.324379
N	 1.3746797748	 3.2828372485	 0.0113438578	-0.310531
C	 2.7377752321	 3.4506662464	-0.0014274469	 0.256001
C	 3.3674500636	 4.8029216708	 0.0032076383	 0.09847
O	 4.5533263208	 4.9923115761	-0.0074333844	-0.216879
N	 3.420253146	 2.3253928491	-0.0176728437	-0.113235
O	 2.446339073	 1.3528622902	-0.0156481402	-0.155935
H	-0.8982636467	 1.856998324	 0.0228717801	 0.132937
H	 2.619895306	 5.6204823233	 0.017657282	 0.117596
73.0893	123.5989	142.6234	238.2689	249.6423	316.5527	393.5757	594.6286	685.0283	724.0529	754.541	788.3898	967.9166	1025.1068	1026.5836	1038.1107	1065.7616	1295.1797	1336.5855	1394.7373	1430.2586	1496.5691	1586.4159	1818.5132	1831.2244	2948.9732	2972.8204
O=CC1=NC(C=O)=NO1	O=Cc1nc(C=O)no1	
InChI=1S/C4H2N2O3/c7-1-3-5-4(2-8)9-6-3/h1-2H	InChI=1S/C4H2N2O3/c7-1-3-5-4(2-8)9-6-3/h1-2H
