11
gdb 132821	2.47749	1.84455	1.05734	2.1707	56.01	-0.2681	-0.0357	0.2324	975.1733	0.066123	-537.989085	-537.982437	-537.981493	-538.02038	24.737	
O	 0.0928500951	 1.3405913319	-0.0741214956	-0.394893
C	 0.0701103488	 0.0049614903	-0.0446880746	 0.339734
C	 0.023607784	-0.70380467	-1.2473296797	 0.02024
F	 0.001213005	-0.0891226228	-2.4225707383	-0.037425
C	 0.0024417747	-2.0851658795	-1.1348978786	 0.246505
F	-0.0415397135	-2.8106269542	-2.2363106143	-0.038328
N	 0.023789754	-2.7225238318	 0.0190361861	-0.309818
C	 0.0679752546	-1.9507592828	 1.101970056	 0.065598
N	 0.0922924783	-0.6196679332	 1.1298840779	-0.341607
H	 0.1241042413	 1.6339134051	 0.8482173352	 0.312261
H	 0.0862559177	-2.457399713	 2.062043606	 0.137734
134.1512	252.2827	269.4045	326.7814	331.7528	516.0578	545.5952	550.9186	571.9659	582.7462	691.7358	736.771	794.9267	886.2608	984.2714	1072.6703	1170.1656	1280.8426	1342.8271	1348.6044	1362.1543	1491.8531	1533.1207	1637.6565	1661.4323	3186.9976	3760.7153
OC1=C(F)C(F)=NC=N1	Oc1c(F)c(F)ncn1	
InChI=1S/C4H2F2N2O/c5-2-3(6)7-1-8-4(2)9/h1H,(H,7,8,9)	InChI=1S/C4H2F2N2O/c5-2-3(6)7-1-8-4(2)9/h1H,(H,7,8,9)
