11
gdb 23768	3.36026	2.36879	1.38937	3.2049	55.85	-0.2463	-0.0517	0.1946	777.0408	0.074074	-438.7429	-438.736997	-438.736052	-438.773063	22.002	
F	-0.0207689461	 0.0279219624	 0.0044918044	-0.050529
C	-0.0389221802	 1.3533676957	 0.0110901593	 0.128366
C	-1.2025009119	 2.0497897656	 0.0296825846	-0.104431
N	-1.2639916649	 3.4229978195	 0.0371068756	-0.27089
C	-0.1289560518	 4.0427376815	 0.0252549479	 0.113531
N	 1.078437394	 3.4172401209	 0.0064198946	-0.340445
C	 1.2560586766	 2.0181880911	-0.0027204852	 0.338438
O	 2.3561318366	 1.5093508132	-0.0194726932	-0.370329
H	-2.1489998158	 1.5180882607	 0.0395207557	 0.137191
H	-0.1011705093	 5.1287952313	 0.0301541396	 0.144553
H	 1.9359674327	 3.9555492979	-0.0021752433	 0.274545
152.2586	278.9044	300.5196	416.4125	474.5316	551.3385	596.2324	598.867	729.34	757.7616	784.996	922.4247	929.6418	968.4324	1095.5203	1135.9913	1228.6255	1293.1516	1375.586	1422.2071	1471.8204	1607.5311	1662.5193	1811.8945	3177.9012	3185.0774	3585.2804
FC1=CN=CNC1=O	Fc1cnc[nH]c1=O	
InChI=1S/C4H3FN2O/c5-3-1-6-2-7-4(3)8/h1-2H,(H,6,7,8)	InChI=1S/C4H3FN2O/c5-3-1-6-2-7-4(3)8/h1-2H,(H,6,7,8)
