11
gdb 11693	5.16358	1.56731	1.371	3.804	57.	-0.3031	-0.0415	0.2616	839.9038	0.072025	-397.398704	-397.392401	-397.391457	-397.42935	23.093	
O	-0.0654032039	 0.1068435716	-0.0580377832	-0.29746
C	 0.0382823418	 1.2817868344	 0.0200644821	 0.474844
O	-0.9861311723	 2.2140594376	 0.2174863567	-0.280552
C	-0.0414591614	 3.3035616773	 0.0445728975	 0.339966
C	 0.9680446282	 3.2580878076	 1.1424677893	-0.320701
C	 1.1211486466	 2.3307911335	-0.063092418	-0.307615
C	-0.4105185155	 4.417291647	-0.7612680349	 0.234708
N	-0.6938206481	 5.3370236191	-1.4021043055	-0.326253
H	 1.686156223	 4.0711065878	 1.1717569301	 0.163139
H	 0.6576052627	 2.8635982826	 2.1040229649	 0.160532
H	 1.9839685088	 2.3337230716	-0.7121945489	 0.159392
114.7455	172.9362	262.6757	426.0076	458.8141	514.2658	543.4954	611.8587	689.666	759.4265	847.0696	894.3632	933.7079	967.012	997.093	1025.6998	1069.6766	1102.3815	1196.6306	1231.8459	1377.2651	1476.9684	1967.8271	2362.1018	3135.792	3233.2707	3242.8306
O=C1OC2(CC12)C#N	O=C1O[C@]2(C[C@@H]12)C#N	
InChI=1S/C5H3NO2/c6-2-5-1-3(5)4(7)8-5/h3H,1H2	InChI=1S/C5H3NO2/c6-2-5-1-3(5)4(7)8-5/h3H,1H2/t3-,5+/m0/s1
