9
gdb 130791	3.86219	1.30462	0.9752	1.1922	59.5	-0.3173	-0.172	0.1453	1045.1598	0.040766	-483.621805	-483.614729	-483.613785	-483.654708	24.069	
O	-0.0015537614	-0.053398166	 0.0034221796	-0.279897
C	 0.0220539477	 1.1331156185	 0.0087683398	 0.48726
O	-1.1872137159	 1.8331497411	 0.0292604154	-0.226194
N	-1.2432003213	 3.2423124795	 0.0368109911	 0.106935
N	-0.1859915344	 3.8832457871	 0.0249249269	-0.135503
C	 1.0404305014	 3.1802298087	 0.0042158906	 0.289569
N	 1.1885777637	 1.9092689523	-0.0039741343	-0.298437
C	 2.1952865449	 4.0403899463	-0.0079819582	 0.33261
N	 3.1162123851	 4.7380242526	-0.0176611008	-0.276344
34.55	127.8586	158.1464	317.2142	415.6177	462.9635	466.0253	552.7471	584.2774	718.0174	741.7728	750.5578	811.7733	886.4587	999.6452	1114.2869	1249.9177	1573.8206	1662.6259	1899.2246	2366.4901
O=C1ON=NC(=N1)C#N	O=c1onnc(n1)C#N	
InChI=1S/C3N4O2/c4-1-2-5-3(8)9-7-6-2	InChI=1S/C3N4O2/c4-1-2-5-3(8)9-7-6-2
