10
gdb 23848	5.82647	1.65125	1.28661	2.1297	53.75	-0.2688	-0.1124	0.1563	817.7977	0.059641	-454.701034	-454.694915	-454.693971	-454.732265	22.022	
F	-0.0072300723	 0.0991134153	 0.0043168501	-0.040833
C	-0.031905789	 1.4186322054	 0.0110295711	 0.325957
N	-1.1705158344	 1.9898299702	 0.028545495	-0.109558
O	-1.1303066887	 3.3739914651	 0.0349592238	-0.273139
C	 0.0783417894	 4.0979606197	 0.023410936	 0.472725
N	 0.0483814312	 5.3587653804	 0.0305390557	-0.488973
N	 1.2852478314	 3.4005906294	 0.0040616536	-0.218363
C	 1.2361670084	 2.1226795808	-0.0018367277	-0.074049
H	-0.9136147953	 5.6985952272	 0.044810485	 0.243755
H	 2.1597074294	 1.5458209066	-0.0167686726	 0.162478
34.7225	312.2928	347.6884	362.3424	468.3133	512.8025	543.7725	624.804	770.0283	770.1474	817.8573	873.6943	918.9275	967.7591	1011.5092	1084.5042	1254.1569	1319.7591	1447.0212	1635.8231	1711.5464	1736.9961	3151.3934	3501.5336
FC1=NOC(=N)N=C1	FC1=NOC(=N[CH]1)[NH]	
InChI=1S/C3H2FN3O/c4-2-1-6-3(5)8-7-2/h1,5H	InChI=1S/C3H2FN3O/c4-2-1-6-3(5)8-7-2/h1,5H
