11
gdb 42182	3.05287	1.3763	1.01679	3.0859	61.85	-0.3256	-0.1222	0.2034	1061.9615	0.06359	-451.530936	-451.522752	-451.521808	-451.56447	27.856	
O	 0.4119610383	 0.9467076728	-1.4741004512	-0.237374
C	 0.062182473	 1.4341208876	-0.4350685631	 0.270524
C	 0.9570773165	 1.4967842314	 0.7346712161	 0.244801
N	 1.672240325	 1.5027098482	 1.6427055376	-0.29845
C	-1.311464652	 2.0198156551	-0.2046679839	 0.142941
C	-1.9783271784	 1.8135570048	 1.1125999375	-0.200505
O	-1.3811377373	 3.0517585775	 0.7781936497	-0.220395
C	-2.1193234769	 2.1914428624	-1.3943184366	 0.265722
N	-2.7763191371	 2.327652139	-2.333585753	-0.301619
H	-3.0655595555	 1.79536297	 1.1216756451	 0.169635
H	-1.4668172757	 1.2324472011	 1.8767821318	 0.16472
49.4126	120.5961	166.4643	209.5088	245.9309	283.2007	335.4043	431.9746	494.7062	558.303	576.8175	672.0555	754.1631	855.1699	895.4223	947.6655	1025.721	1138.6352	1173.2295	1286.0984	1339.5398	1510.8918	1808.9745	2344.5483	2374.7536	3104.2336	3209.2945
O=C(C#N)C1(CO1)C#N	O=C(C#N)[C@]1(CO1)C#N	
InChI=1S/C5H2N2O2/c6-1-4(8)5(2-7)3-9-5/h3H2	InChI=1S/C5H2N2O2/c6-1-4(8)5(2-7)3-9-5/h3H2/t5-/m1/s1
