11
gdb 132484	3.28065	1.43644	0.99902	3.9918	57.39	-0.252	-0.0644	0.1877	1031.1708	0.065655	-533.845049	-533.838217	-533.837273	-533.87659	25.317	
O	-0.1017419059	 1.2845028558	 0.0102800088	-0.367817
C	 0.0655110467	-0.0308126342	 0.0020183006	 0.526291
N	 1.2344938401	-0.5736700374	-0.0073997344	-0.399003
C	 1.2453957546	-1.9480146778	-0.0149802977	-0.106664
C	 0.1172714626	-2.6914681954	-0.0128111951	 0.090163
F	 0.1403151445	-4.0192830742	-0.0201850974	-0.051018
C	-1.1919159676	-2.0759251285	-0.0022285057	 0.359304
O	-2.2722457275	-2.5788353575	 0.0010798934	-0.311189
O	-1.109206913	-0.6518365134	 0.0051479173	-0.214534
H	 0.7834720819	 1.6759763605	 0.0075717866	 0.327583
H	 2.2179295237	-2.428940538	-0.0229796763	 0.146884
122.3608	167.385	299.7594	363.4044	390.7248	412.6742	473.9941	522.8422	557.1522	618.0659	752.4714	756.1201	774.5743	802.7404	964.4927	978.88	1037.9688	1177.2501	1290.5237	1313.9939	1390.4282	1479.1283	1630.9521	1678.3529	1889.581	3194.2739	3779.2966
OC1=NC=C(F)C(=O)O1	Oc1ncc(F)c(=O)o1	
InChI=1S/C4H2FNO3/c5-2-1-6-4(8)9-3(2)7/h1H,(H,6,8)	InChI=1S/C4H2FNO3/c5-2-1-6-4(8)9-3(2)7/h1H,(H,6,8)
