10
gdb 21349	6.20246	1.35951	1.30624	4.1157	52.5	-0.3394	-0.0731	0.2663	875.4255	0.0612	-405.76353	-405.757139	-405.756195	-405.795551	21.089	
N	-0.0606765662	-1.1720796835	-0.0045758128	-0.26707
C	-0.0159372962	-0.0191676323	 0.0016756035	 0.292824
C	 0.00910246	 1.4463093666	 0.01015273	-0.279578
N	 1.3631206577	 1.9805431222	-0.0000843696	 0.169996
N	 2.067331399	 2.2375844466	 1.0945595304	-0.098592
N	 3.2035527801	 2.680280131	 0.6626930186	-0.068015
N	 3.1892962457	 2.6903544009	-0.6909943059	-0.068041
N	 2.0441968225	 2.2538920555	-1.1053826209	-0.098581
H	-0.5039684195	 1.8341774706	-0.872737901	 0.208541
H	-0.4865437831	 1.8235835425	 0.9074772077	 0.208517
33.5709	101.8751	273.655	329.4137	362.0374	489.7037	707.5863	764.0317	793.9942	936.8602	945.6801	950.7304	1087.0197	1136.7073	1137.6232	1255.9326	1296.4257	1378.9108	1399.0942	1423.7794	1448.7632	2379.7095	3088.6288	3141.9866
N#CCN1N=NN=N1	N#CCn1nnnn1	
InChI=1S/C2H2N6/c3-1-2-8-6-4-5-7-8/h2H2	InChI=1S/C2H2N6/c3-1-2-8-6-4-5-7-8/h2H2
