9
gdb 133404	1.92897	1.01503	0.74203	1.9676	47.83	-0.2715	-0.1027	0.1687	1370.6516	0.03428	-573.915513	-573.905037	-573.904093	-573.956902	29.787	
F	-0.1935395672	-0.1124527671	-0.1541191699	-0.053119
C	-0.2542074402	 1.148994674	 0.2855710009	 0.335141
C	-1.5647186967	 1.7183509689	 0.050917123	-0.197523
F	-2.5536722995	 1.0267010359	-0.5335354159	-0.053657
C	-1.7894004414	 2.9811995698	 0.4353918786	 0.461269
O	-1.9900454774	 4.0662494045	 0.7676056436	-0.16245
N	 1.1069775364	 4.4219875476	-0.7391188704	-0.005813
N	 2.1617054842	 4.7272900094	-0.7058662385	 0.004476
O	 0.6722017618	 1.698881917	 0.7995378386	-0.328324
12.5741	23.1935	36.8239	43.7423	76.5845	101.2121	140.3393	249.5317	282.3979	480.99	492.8856	517.9943	686.6787	734.2725	785.9689	1105.9285	1367.2706	1381.2294	1849.799	2244.2493	2433.5445	12.575	23.1929	36.8232	43.7421	76.5843	101.2121	140.339	249.532	282.3979	480.99	492.8856	517.9947	686.6785	734.2727	785.969	1105.9287	1367.2711	1381.2297	1849.7991	2244.2483	2433.5445
FC1=C(F)C(=O)N=NO1	FC(=O)[C](F)[C][O].N#N	
InChI=1S/C3F2N2O2/c4-1-2(5)9-7-6-3(1)8	InChI=1S/C3F2O2.N2/c4-2(1-6)3(5)7;1-2
