11
gdb 130603	3.54932	0.8623	0.71121	4.456	56.	-0.2675	-0.1129	0.1546	1428.9005	0.061177	-488.758762	-488.749074	-488.74813	-488.800256	28.841	
O	-0.0252322735	-0.4079143615	 0.51715062	-0.28317
C	-0.4073209114	 0.7317856881	 0.4510733049	 0.292369
C	-1.7268451455	 1.3394060331	 0.5740880014	-0.304087
C	-1.5591028931	 2.6627170853	 0.411494275	 0.087496
O	-0.275592133	 3.0868523335	 0.1856620944	-0.198378
N	 2.7092087049	 5.2640993253	-0.8220392906	-0.007542
N	 1.9859982439	 4.8638035644	-1.545706401	 0.005053
C	 0.5373409937	 1.9493635871	 0.1877761823	 0.357587
O	 1.707662287	 2.001238609	 0.0131066913	-0.27018
H	-2.6559182785	 0.8252784594	 0.7597014408	 0.150097
H	-2.2864274245	 3.4635164263	 0.4301801815	 0.170756
7.8694	15.2405	23.6856	32.5054	65.1297	159.4303	321.0832	326.6538	511.5893	572.5726	603.9415	751.3179	767.4766	800.7609	845.7418	924.5401	965.2119	1066.1956	1174.0708	1220.189	1373.433	1623.8425	1832.4537	1927.5105	2432.1684	3234.9751	3274.1773	7.8725	15.241	23.6861	32.5057	65.1299	159.4305	321.083	326.6538	511.5891	572.5728	603.9417	751.3178	767.4771	800.7605	845.7423	924.5408	965.2097	1066.1961	1174.0706	1220.1885	1373.4322	1623.8422	1832.4524	1927.5104	2432.1684	3234.9749	3274.1773
O=C1C=CON=NC1=O	O=C1C=COC1=O.N#N	
InChI=1S/C4H2N2O3/c7-3-1-2-9-6-5-4(3)8/h1-2H	InChI=1S/C4H2O3.N2/c5-3-1-2-7-4(3)6;1-2/h1-2H;
