11
gdb 24800	3.87767	1.30085	0.97408	4.34	67.78	-0.2876	-0.1037	0.1839	1078.7745	0.067353	-447.747266	-447.740324	-447.73938	-447.779424	24.614	
N	-0.0490160786	 1.3162968197	-0.0972668424	-0.471574
C	 0.0040587245	 0.0576638022	 0.0429823882	 0.374493
N	 1.2237056956	-0.6650778769	 0.1557439352	-0.277234
C	 1.1605915444	-1.9188790334	 0.2930240345	 0.122052
O	 0.0131256672	-2.6683757175	 0.3456685249	-0.208529
C	-1.1344524886	-1.9256965191	 0.2331179443	 0.311274
N	-1.2079832735	-0.670096102	 0.0920490705	-0.271298
C	-2.3096880551	-2.7555996136	 0.2943883993	 0.299859
N	-3.2485501592	-3.4263766272	 0.3441978844	-0.29315
H	 0.9029910422	 1.6864047167	-0.1128178577	 0.241438
H	 2.0349855811	-2.5550890691	 0.3868180087	 0.17267
71.8842	134.6387	157.8563	386.3894	423.3856	446.6517	490.4395	557.8583	590.3477	710.8343	769.22	799.6088	887.4176	930.6075	943.9771	971.4761	1018.3225	1137.9313	1214.696	1341.3214	1402.5658	1649.64	1719.626	1748.6962	2371.2689	3202.9012	3485.1624
N=C1N=COC(=N1)C#N	[NH][C@H]1N=COC(=N1)C#N	
InChI=1S/C4H2N4O/c5-1-3-8-4(6)7-2-9-3/h2,6H	InChI=1S/C4H3N4O/c5-1-3-8-4(6)7-2-9-3/h2,4,6H/t4-/m0/s1
