11
gdb 18424	3.72425	1.90998	1.59197	5.9863	55.18	-0.3035	-0.0351	0.2685	774.8503	0.072234	-397.395925	-397.389676	-397.388732	-397.426657	22.67	
O	-0.0443537416	 0.0754281995	-0.0101702924	-0.294538
C	 0.0411446199	 1.2520903817	 0.0496192618	 0.481562
O	-0.9906884965	 2.1821874438	 0.2112111308	-0.246206
C	-0.06155884	 3.263126298	-0.0070628979	 0.088257
C	 0.9498492121	 3.3080854771	 1.0962657242	-0.212925
C	 0.6610630877	 2.8910993031	 2.4439928273	 0.322256
N	 0.4441801326	 2.5744645991	 3.533840928	-0.319106
C	 1.1067225533	 2.3208683288	-0.0827497091	-0.283263
H	-0.377650759	 4.0878516548	-0.6291579543	 0.153185
H	 1.6516366074	 4.1358984328	 1.0290014273	 0.160323
H	 1.995887344	 2.2938838012	-0.6946689557	 0.150457
102.4141	162.9041	253.2816	388.3647	465.435	532.9035	644.1966	712.3691	737.7397	808.387	829.9376	896.5214	927.6662	964.0511	996.5956	1043.119	1070.9782	1084.8653	1150.8789	1258.8026	1305.1952	1406.9785	1968.4772	2366.6221	3153.7729	3231.6022	3243.0148
O=C1OC2C(C#N)C12	O=C1O[C@H]2[C@@H](C#N)[C@@H]12	
InChI=1S/C5H3NO2/c6-1-2-3-4(2)8-5(3)7/h2-4H	InChI=1S/C5H3NO2/c6-1-2-3-4(2)8-5(3)7/h2-4H/t2-,3+,4-/m0/s1
