11
gdb 21475	8.42396	1.27507	1.10999	2.4168	54.95	-0.2813	-0.0419	0.2394	965.2928	0.07293	-430.70484	-430.698338	-430.697394	-430.736682	22.031	
N	-0.1548660207	 1.2844658072	 0.1224906465	-0.409967
C	-0.0304156527	 0.0474974892	-0.0405376034	 0.11489
O	-1.1694293423	-0.7245717195	 0.0509255667	-0.202561
C	-1.036536594	-2.0545800876	 0.0474123154	 0.486789
N	 0.0992197736	-2.6988102817	 0.1677522231	-0.222834
O	-0.3095787322	-4.0404619879	 0.1057727617	-0.154086
C	-1.6344037678	-4.0195121306	-0.0318541313	 0.123449
N	-2.1556155324	-2.8355298984	-0.0765017267	-0.315133
H	 0.74560049	 1.7455527854	 0.005198119	 0.246885
H	 0.8658375742	-0.5328607897	-0.2654993389	 0.153979
H	-2.1392048857	-4.9724402364	-0.0930421721	 0.178589
52.9678	90.5211	192.8947	343.8307	466.3235	508.1643	617.5844	771.211	809.2866	842.1314	912.1616	943.1875	978.0287	1009.2631	1052.9599	1076.5265	1154.0679	1250.7069	1310.953	1393.8828	1407.4107	1543.9234	1611.648	1757.8129	3123.9063	3269.6313	3521.5708
N=COC1=NOC=N1	[NH][CH]Oc1nocn1	
InChI=1S/C3H3N3O2/c4-1-7-3-5-2-8-6-3/h1-2,4H	InChI=1S/C3H3N3O2/c4-1-7-3-5-2-8-6-3/h1-2,4H
