10
gdb 20310	6.51098	1.65656	1.32057	3.0856	63.87	-0.2618	-0.1052	0.1566	823.9384	0.060159	-372.434386	-372.428141	-372.427197	-372.464952	22.178	
C	 0.0304025764	-1.1749151312	-0.0042980424	-0.319655
C	-0.0125206125	 0.0262180996	 0.0030223201	 0.283128
C	-0.0548466036	 1.4505306352	 0.0115976252	 0.229323
N	-1.244268459	 2.0605832929	 0.03061231	-0.251294
C	-1.1465830758	 3.3827218713	 0.0365691448	 0.102385
N	-0.0097814817	 4.0860037025	 0.025409217	-0.156954
N	 1.1287957707	 3.4087131247	 0.0066339827	-0.058016
N	 1.1337200971	 2.0936136159	-0.0006502932	-0.204575
H	 0.0679657648	-2.2373677765	-0.010762535	 0.220877
H	-2.0671405964	 3.9602785458	 0.0519099408	 0.154781
110.0375	159.8798	286.9558	305.1036	514.8973	545.5338	596.2407	669.7016	694.4959	705.4994	844.6622	867.5687	948.7535	1006.0516	1026.876	1151.8956	1260.2784	1323.7845	1406.5628	1510.0298	1552.589	2243.5607	3179.4994	3496.239
C#CC1=NC=NN=N1	C#Cc1ncnnn1	
InChI=1S/C4H2N4/c1-2-4-5-3-6-8-7-4/h1,3H	InChI=1S/C4H2N4/c1-2-4-5-3-6-8-7-4/h1,3H
