10
gdb 130560	3.84424	1.36118	1.00524	4.3731	61.73	-0.3227	-0.1226	0.2001	1037.1789	0.052451	-463.693658	-463.686442	-463.685498	-463.72628	24.69	
O	 0.0205349556	-0.069094508	 0.0032431672	-0.237505
C	 0.0324579442	 1.1257587873	 0.0054725827	 0.316807
C	 1.1915845362	 1.9678369441	 0.0003151354	 0.262982
C	 2.2072784351	 2.6096625092	-0.0044867479	-0.358157
N	-1.216372755	 1.8666345631	 0.0161209415	 0.061923
N	-1.3113819629	 3.2011152766	 0.0201292313	-0.088
N	-2.5692522938	 3.4516491391	 0.0297740377	-0.065176
N	-3.2586031938	 2.2669832931	 0.0313809061	-0.065051
N	-2.4241055396	 1.2923811851	 0.0231321811	-0.06831
H	 3.101363564	 3.1867245903	-0.0086895352	 0.240487
58.5011	130.0152	160.2357	253.3139	264.9731	443.8163	500.6929	681.4802	689.5108	697.167	736.9101	754.3002	764.6324	879.0215	1038.3846	1083.3957	1108.8645	1168.4266	1252.981	1367.1146	1430.2709	1834.6031	2236.2372	3488.5811
O=C(C#C)N1N=NN=N1	O=C(C#C)n1nnnn1	
InChI=1S/C3HN5O/c1-2-3(9)8-6-4-5-7-8/h1H	InChI=1S/C3HN5O/c1-2-3(9)8-6-4-5-7-8/h1H
