11
gdb 21476	8.45004	1.23097	1.07445	1.2087	55.7	-0.2834	-0.059	0.2244	988.5115	0.072037	-430.662493	-430.65584	-430.654896	-430.695118	22.478	
N	-0.1215090496	 1.3016416409	 0.0113686986	-0.412564
C	-0.0033699435	 0.0533604698	 0.002776439	 0.108899
O	-1.1640982263	-0.691442739	 0.0088221404	-0.21716
C	-1.0724044091	-2.0302973975	 0.0014687182	 0.437441
N	 0.0282636662	-2.731464497	-0.0100881035	-0.17516
O	-0.3916807926	-4.0402642515	-0.0135369089	-0.157186
N	-1.752814393	-4.1304942157	-0.003918185	-0.042973
C	-2.1946947181	-2.9065882316	 0.0053258248	-0.115966
H	 0.7969715095	 1.7416461032	 0.0056557017	 0.248926
H	 0.9007752628	-0.5565925694	-0.0089826127	 0.158077
H	-3.2470158463	-2.6733697021	 0.0142105275	 0.167666
23.8979	89.8818	181.5953	351.6415	444.6303	492.2817	626.7276	721.6397	811.3721	837.4243	886.5021	909.3312	924.2579	1007.5484	1035.9269	1053.1927	1088.7896	1214.3945	1251.5667	1404.6998	1445.4934	1502.5749	1623.4097	1756.1127	3131.8507	3282.6565	3521.2549
N=COC1=NON=C1	[NH][CH]Oc1nonc1	
InChI=1S/C3H3N3O2/c4-2-7-3-1-5-8-6-3/h1-2,4H	InChI=1S/C3H3N3O2/c4-2-7-3-1-5-8-6-3/h1-2,4H
