10
gdb 128865	9.68871	0.67252	0.62887	3.7243	78.35	-0.2813	-0.0864	0.1949	1569.3721	0.054114	-430.425526	-430.418378	-430.417434	-430.457982	24.854	
N	 0.0737049715	-3.7106778268	-0.0185824595	-0.322761
C	 0.048776899	-2.5488794469	-0.0119468817	 0.179785
C	 0.0144704955	-1.1861894868	-0.0040983969	 0.214502
C	-0.0259488898	 0.0228703874	 0.0030290353	 0.01596
C	-0.0672468246	 1.4251665477	 0.0114398497	 0.093553
C	-1.1352787233	 2.2824647957	 0.0307216915	-0.065399
O	-0.7044159575	 3.5245251528	 0.0319176738	-0.150116
N	 0.7575156661	 3.4395041856	 0.0112885046	 0.003946
N	 1.0645935633	 2.2343650778	 0.0003137505	-0.163018
H	-2.1997877901	 2.1112849834	 0.0443066127	 0.193548
78.5214	87.8987	234.1916	239.4808	432.3832	477.1184	487.7038	504.6122	591.0216	600.0025	637.1197	718.7269	882.8947	938.4729	974.5737	1055.1469	1164.9251	1274.8276	1339.8442	1512.5366	1581.4622	2268.7015	2387.9207	3283.0309
N#CC#CC1=CON=N1	N#CC#Cc1conn1	
InChI=1S/C5HN3O/c6-3-1-2-5-4-9-8-7-5/h4H	InChI=1S/C5HN3O/c6-3-1-2-5-4-9-8-7-5/h4H
