10
gdb 131994	4.34366	1.34052	1.02438	2.1337	57.28	-0.2964	-0.1475	0.1489	1007.9917	0.052461	-500.763508	-500.756666	-500.755721	-500.796435	23.363	
O	-0.0551008602	-0.0102123705	 0.0032154182	-0.299762
N	-0.0091974047	 1.1990164333	 0.0067642793	 0.420003
O	 0.9890408577	 1.9055480301	 0.0023934088	-0.348347
C	-1.3083619741	 1.9474480844	 0.0174937563	 0.420528
C	-1.3213171331	 3.333620234	 0.0209893872	 0.024796
N	-2.4975857711	 3.9488698596	 0.0304696905	-0.15062
N	-3.6035949836	 3.2089714293	 0.0362350192	-0.022664
N	-3.566165309	 1.8961255964	 0.0328454616	-0.04202
N	-2.4049925905	 1.2362565764	 0.0232614573	-0.197305
H	-0.4212720313	 3.9355025172	 0.0163896716	 0.19539
24.5807	118.4302	234.7139	321.6061	381.6239	387.6824	519.558	661.6375	754.92	759.1245	832.7333	837.2974	903.5303	987.3461	1060.0437	1074.0246	1173.2824	1250.7095	1332.6428	1388.7022	1524.3429	1584.8196	1686.6602	3227.8854
O=N(=O)C1=CN=NN=N1	O=N(=O)c1cnnnn1	
InChI=1S/C2HN5O2/c8-7(9)2-1-3-5-6-4-2/h1H	InChI=1S/C2HN5O2/c8-7(9)2-1-3-5-6-4-2/h1H
