11
gdb 27048	2.54128	1.49445	0.94105	5.5587	58.26	-0.2552	-0.0627	0.1925	1101.9048	0.064399	-529.691225	-529.683758	-529.682814	-529.72362	26.373	
O	 0.0918786317	 1.3345186645	 0.0076365544	-0.387617
C	-0.0192151223	 0.018317266	 0.0008251778	 0.36092
C	-1.1079182923	-0.7807836563	 0.0024455232	 0.105314
O	-0.6317698654	-2.1006896294	-0.0076480975	-0.224515
C	 0.7112812443	-2.0754121038	-0.0153235145	 0.515315
O	 1.4664978073	-2.9848771528	-0.0242791264	-0.342725
O	 1.1122924621	-0.7236892791	-0.0097471108	-0.241938
C	-2.5200440985	-0.4804683109	 0.0121471856	 0.067994
O	-3.4070958192	-1.3042656492	 0.0129642603	-0.28142
H	 1.0272265645	 1.5784518303	 0.0039688344	 0.33478
H	-2.7194556122	 0.6122136807	 0.0198686435	 0.093892
121.1632	152.2702	191.6819	223.5114	304.6288	320.5553	409.31	473.2905	616.3286	654.8787	675.9929	714.767	767.8852	841.5267	910.8565	1010.0799	1029.9758	1173.3338	1260.1771	1319.1601	1419.3165	1459.2713	1763.572	1784.1927	1970.2688	2905.8734	3793.8681
OC1=C(OC(=O)O1)C=O	Oc1c(oc(=O)o1)C=O	
InChI=1S/C4H2O5/c5-1-2-3(6)9-4(7)8-2/h1,6H	InChI=1S/C4H2O5/c5-1-2-3(6)9-4(7)8-2/h1,6H
