9
gdb 21777	3.3539	2.61517	1.46941	3.5435	47.23	-0.3052	-0.1008	0.2044	728.734	0.047935	-470.473869	-470.467795	-470.466851	-470.504671	21.187	
O	-0.0396601807	 0.0563478906	 0.4199442743	-0.245823
C	-0.001820001	 1.1858565548	 0.0641505968	 0.321116
O	-1.1587107628	 1.8387862509	-0.3109371739	-0.184631
C	-1.0824704599	 3.1287784765	-0.7143723629	 0.169857
N	-0.0612924287	 3.8762592041	-0.8089294106	-0.101491
O	 1.1746815316	 3.3050555453	-0.4494104382	-0.235637
C	 1.283319564	 2.0138435645	-0.0187961834	 0.345314
O	 2.3454326961	 1.5655971226	 0.2750455565	-0.257763
H	-2.0450576286	 3.5441307907	-0.9850905085	 0.189058
81.2945	150.0696	349.678	450.5309	490.7213	522.6237	567.402	569.3145	704.1998	803.0778	920.2788	933.266	979.6222	1017.4324	1153.5254	1255.1649	1359.5738	1711.3562	1876.6383	1908.1687	3236.9644
O=C1OC=NOC1=O	O=c1ocnoc1=O	
InChI=1S/C3HNO4/c5-2-3(6)8-4-1-7-2/h1H	InChI=1S/C3HNO4/c5-2-3(6)8-4-1-7-2/h1H
