11
gdb 5353	6.07584	1.65313	1.29955	6.1189	65.05	-0.2812	-0.0795	0.2016	844.1499	0.075174	-356.501918	-356.496052	-356.495108	-356.532068	21.294	
N	 0.0175663052	-1.1352073669	-0.0035803842	-0.318672
C	 0.0017246818	 0.0201539427	 0.0028819294	 0.285189
C	-0.0178938717	 1.4672055996	 0.0110198256	 0.256401
N	-1.2239390001	 2.0408510843	 0.0300504764	-0.264027
C	-1.2274538446	 3.3743874899	 0.0369998563	 0.008365
C	-0.0538878998	 4.120957678	 0.0251552864	-0.116462
C	 1.1394913599	 3.4066600219	 0.005430246	 0.008362
N	 1.1721444336	 2.0735210602	-0.0019077322	-0.264025
H	-2.2028513495	 3.8538109807	 0.0525507632	 0.137505
H	-0.068576054	 5.2039285942	 0.0309706994	 0.129859
H	 2.1015250994	 3.9125000254	-0.0048597764	 0.137506
136.5303	177.5875	361.9503	408.9195	507.7933	570.3986	581.7379	651.6283	810.3996	831.015	842.4736	1004.1503	1013.2465	1018.5323	1091.8532	1119.4231	1255.1509	1290.2173	1295.8233	1444.781	1460.9165	1596.0295	1608.3404	2363.8812	3168.3856	3170.7317	3215.7568
N#CC1=NC=CC=N1	N#Cc1ncccn1	
InChI=1S/C5H3N3/c6-4-5-7-2-1-3-8-5/h1-3H	InChI=1S/C5H3N3/c6-4-5-7-2-1-3-8-5/h1-3H
