11
gdb 131020	6.84989	0.94274	0.82869	0.9738	68.7	-0.3095	-0.1011	0.2084	1235.3266	0.06717	-447.749157	-447.742135	-447.741191	-447.781189	24.428	
O	-0.0755926049	-0.0239439859	-0.001959078	-0.220494
C	-0.0035628053	 1.1632834911	 0.0077573755	 0.215041
N	 1.2345965785	 1.8748349465	-0.0002232838	 0.065014
N	 2.4418892928	 1.2905813019	-0.0191734631	-0.17039
C	 3.2769073136	 2.3106187015	-0.0198624109	-0.102173
C	 2.5235472496	 3.5173413744	-0.0006481666	 0.228189
N	 1.230476894	 3.2096930895	 0.0114316491	-0.26722
C	 2.9975784844	 4.8565388758	 0.0055746013	 0.247572
N	 3.4277689685	 5.9298608271	 0.0099818705	-0.31232
H	-0.8354559438	 1.8834975503	 0.0234289487	 0.147608
H	 4.3462576527	 2.1723021579	-0.0333570827	 0.169173
91.2523	138.0586	207.3846	260.0623	273.7693	456.8754	517.4841	564.3229	652.7217	680.0703	732.1399	819.0416	913.1313	987.4933	1031.279	1045.3997	1203.9489	1259.9487	1314.8565	1380.903	1411.6475	1436.4985	1545.4138	1870.1124	2365.5465	3045.4924	3279.3464
O=CN1N=CC(=N1)C#N	O=Cn1ncc(n1)C#N	
InChI=1S/C4H2N4O/c5-1-4-2-6-8(3-9)7-4/h2-3H	InChI=1S/C4H2N4O/c5-1-4-2-6-8(3-9)7-4/h2-3H
