11
gdb 128930	4.33265	1.04315	0.93743	3.2043	58.65	-0.3037	-0.0886	0.2152	1160.6945	0.06437	-484.787021	-484.77951	-484.778566	-484.820939	25.404	
N	 0.1599406032	-0.9677164526	-0.6434400013	-0.294225
C	 0.1895180182	 0.0777313939	-0.1535480136	 0.274513
C	 0.2323062236	 1.4114695264	 0.4615092925	-0.296583
N	 1.5293487028	 2.0614432234	 0.2842513692	-0.345908
C	 1.7783277276	 2.5937924708	-0.8174071261	 0.605445
O	 1.0050501716	 2.6819917614	-1.9464373792	-0.224687
N	 1.7490409917	 3.4008288194	-2.8895877447	 0.075036
N	 2.8410997824	 3.708412516	-2.4086866013	 0.084927
O	 2.9493328255	 3.2376392298	-1.1065857847	-0.217658
H	-0.5960033414	 2.0051790672	 0.051921877	 0.165261
H	 0.0562952849	 1.3009067944	 1.5350248721	 0.173879
21.0713	100.0212	178.9283	200.3839	304.6879	368.7589	451.6424	618.8943	635.4184	714.1659	725.8553	755.5769	911.9659	923.1546	968.2047	1012.485	1044.3292	1108.1029	1198.1045	1279.3287	1363.2744	1480.8823	1574.6304	1833.7741	2365.6772	3023.4688	3092.2911
N#CCN=C1ON=NO1	N#CCN=c1onno1	
InChI=1S/C3H2N4O2/c4-1-2-5-3-8-6-7-9-3/h2H2	InChI=1S/C3H2N4O2/c4-1-2-5-3-8-6-7-9-3/h2H2
