11
gdb 21857	2.26619	1.36359	0.90189	2.0402	55.46	-0.2558	-0.0289	0.2269	1167.463	0.06638	-430.781724	-430.771736	-430.770792	-430.821326	29.661	
O	-0.1533346564	 1.4484917783	 0.1269452187	-0.386333
C	-0.1750484534	 0.1362100792	-0.219184837	 0.456925
C	-1.5020897776	-0.4386009015	 0.0121246354	-0.412279
C	-1.7381627911	-1.7016267901	-0.2962740582	 0.469104
N	-1.9901936364	-2.8179990174	-0.6889774095	-0.487347
N	 1.1040693804	-3.446277864	 0.6748771788	-0.013733
N	 2.1621442191	-3.1517805385	 0.6863664327	 0.01224
O	 0.7953629298	-0.4422087669	-0.6515349742	-0.379263
H	 0.7493488392	 1.7501007312	-0.0516270883	 0.301488
H	-2.2861121462	 0.1643423478	 0.4508394538	 0.148618
H	-1.8187224573	-3.612740068	-0.076061152	 0.290579
14.5417	31.0612	46.1424	52.5746	76.4644	110.6708	145.442	405.1847	471.0255	503.4755	522.7134	620.399	681.1556	792.04	853.7267	935.9291	938.5886	1127.9101	1147.0584	1321.5071	1455.977	1798.2949	2153.095	2434.8742	3217.5019	3517.387	3762.5235	14.5405	31.0607	46.1414	52.5742	76.4641	110.6711	145.4415	405.1848	471.0255	503.4754	522.7138	620.3996	681.1557	792.0399	853.7267	935.929	938.5888	1127.9102	1147.0587	1321.5066	1455.9768	1798.2945	2153.0951	2434.8742	3217.5019	3517.3867	3762.5245
OC1=CC(=N)N=NO1	OC(=O)[CH][C][NH].N#N	
InChI=1S/C3H3N3O2/c4-2-1-3(7)8-6-5-2/h1,4,7H	InChI=1S/C3H3NO2.N2/c4-2-1-3(5)6;1-2/h1,4H,(H,5,6);
