11
gdb 21469	8.38432	1.30562	1.12971	1.9834	55.94	-0.2806	-0.0398	0.2407	952.2012	0.072696	-430.705077	-430.698457	-430.697513	-430.737769	22.171	
N	-0.1239424818	 1.2659905656	 0.0118486083	-0.401227
C	-0.0053896033	 0.0195995441	 0.0016065158	 0.110608
O	-1.1739929511	-0.7228200759	 0.0085377708	-0.209109
C	-1.1218786291	-2.0483231193	 0.0004936342	 0.562877
N	-2.1578850755	-2.8278346138	 0.0030265709	-0.355725
C	-1.5517788147	-4.0580483748	-0.0078528185	 0.062021
N	-0.2476241396	-4.0618686025	-0.0165086236	-0.118967
O	 0.0581882036	-2.6741316052	-0.0107377056	-0.221212
H	 0.7928573143	 1.7090990327	 0.0047751975	 0.252506
H	 0.8978607975	-0.5894856856	-0.0128591223	 0.159026
H	-2.1051871402	-4.9862468853	-0.0093461375	 0.159203
20.9895	87.241	192.9458	312.1033	475.4264	498.7326	639.1097	761.5842	801.6737	836.0541	885.5941	942.0524	971.626	987.1385	1046.7744	1065.5827	1207.2097	1246.5259	1284.114	1353.538	1413.7589	1547.1636	1640.5575	1763.0463	3143.87	3260.0557	3525.3055
N=COC1=NC=NO1	[NH][CH]Oc1ncno1	
InChI=1S/C3H3N3O2/c4-1-7-3-5-2-6-8-3/h1-2,4H	InChI=1S/C3H3N3O2/c4-1-7-3-5-2-6-8-3/h1-2,4H
