9
gdb 8719	4.81953	1.44012	1.1088	4.3104	57.25	-0.2989	-0.1452	0.1538	940.8656	0.045498	-396.174352	-396.166604	-396.165659	-396.207335	25.522	
O	-0.0655009834	-0.0399751897	 0.0003605262	-0.243791
C	-0.0034359476	 1.1668053267	 0.0051879827	 0.157977
C	 1.2106306101	 1.9350607477	 0.0003858416	 0.26466
C	 2.2277125183	 2.5780204318	-0.0037274162	-0.360729
C	-1.3055502456	 1.9945781389	 0.0173013872	 0.221766
O	-1.3318590539	 3.1947862522	 0.0224929024	-0.233252
C	-2.5307663976	 1.1796180042	 0.0219810419	 0.246859
N	-3.5240600067	 0.588395352	 0.0260663709	-0.28784
H	 3.1302266764	 3.1414529262	-0.0080581366	 0.23435
40.3403	115.6295	168.8367	219.2156	268.0652	286.8091	451.2984	489.829	505.6635	629.7895	669.7975	727.437	732.0766	835.8293	972.1309	1233.1982	1769.175	1803.4396	2220.6486	2343.8701	3488.2766
O=C(C#C)C(=O)C#N	O=C(C#C)C(=O)C#N	
InChI=1S/C5HNO2/c1-2-4(7)5(8)3-6/h1H	InChI=1S/C5HNO2/c1-2-4(7)5(8)3-6/h1H
