10
gdb 132337	2.03907	1.85731	0.97197	1.2556	52.89	-0.278	-0.0728	0.2052	1026.5919	0.052854	-557.876652	-557.870056	-557.869112	-557.908168	24.013	
F	 0.0596497428	 0.0600495432	 0.0027464928	-0.033363
C	-0.0138071274	 1.3716021162	 0.0104837135	 0.370603
C	-1.2248078923	 1.9848017323	 0.0306126043	-0.421697
C	-1.2863078718	 3.4132805806	 0.0387959914	 0.460789
O	-2.197849396	 4.1740297512	 0.0553491892	-0.299582
O	 0.0605399751	 4.0262982363	 0.0228669382	-0.234401
C	 1.1207333335	 3.2670875534	 0.0040792986	 0.435892
F	 2.2162174217	 3.9705016243	-0.0078056451	-0.017359
N	 1.1943711013	 1.9870138065	-0.003412524	-0.414823
H	-2.1514001968	 1.4306072959	 0.040772941	 0.15394
152.4868	185.7705	213.5658	349.0182	375.6409	458.9268	551.3473	598.9078	648.896	706.4028	718.3723	781.9954	804.6407	836.3855	983.8665	1081.9825	1131.7185	1260.4771	1419.1253	1455.0454	1626.6221	1686.1459	1921.2997	3251.7325
FC1=CC(=O)OC(F)=N1	Fc1cc(=O)oc(F)n1	
InChI=1S/C4HF2NO2/c5-2-1-3(8)9-4(6)7-2/h1H	InChI=1S/C4HF2NO2/c5-2-1-3(8)9-4(6)7-2/h1H
