11
gdb 46184	1.93975	1.6712	1.30984	3.9551	60.57	-0.3245	-0.0538	0.2708	988.2823	0.065416	-451.567101	-451.559343	-451.558399	-451.599968	26.639	
O	-0.0860221277	 0.0779337844	-0.298331792	-0.272429
C	-0.0455813674	 1.2159463836	 0.0001013987	 0.479196
O	-1.0010179303	 2.0308619696	 0.5099135391	-0.216882
C	-0.1268207911	 3.1969900261	 0.5652036142	-0.094075
C	 1.0547322314	 2.3630111399	-0.0178444377	-0.206593
C	 2.1673408255	 2.1268859694	 0.8921351375	 0.279394
N	 3.0228702833	 1.9378306004	 1.6440491948	-0.296094
C	 1.4912510097	 2.7402595785	-1.3553239012	 0.279393
N	 1.7988962391	 3.0482640394	-2.4246858529	-0.296092
H	-0.4889789607	 3.9929360396	-0.084407483	 0.172091
H	 0.0149538583	 3.5357326189	 1.5907944526	 0.172091
112.2563	124.6	127.0966	164.3694	256.2393	386.3597	421.8835	494.0769	560.2501	585.6436	654.5069	725.7125	777.9709	898.3727	942.2031	995.0827	1096.3825	1155.2552	1156.2355	1222.6716	1344.8299	1510.3554	1980.5703	2367.8818	2372.4568	3102.2058	3178.6268
O=C1OCC1(C#N)C#N	O=C1OCC1(C#N)C#N	
InChI=1S/C5H2N2O2/c6-1-5(2-7)3-9-4(5)8/h3H2	InChI=1S/C5H2N2O2/c6-1-5(2-7)3-9-4(5)8/h3H2
