11
gdb 132140	3.05702	1.47537	0.99511	1.173	60.57	-0.2354	-0.0858	0.1496	1031.2093	0.064326	-537.936423	-537.929545	-537.928601	-537.968133	25.424	
F	 0.1256089093	 0.0577115169	 0.0019161638	-0.007751
C	-0.0364725266	 1.3554742406	 0.0107566104	 0.221915
C	-1.2171722193	 1.9994251435	 0.0305369651	 0.087227
F	-2.3679299643	 1.3372030117	 0.0432780178	-0.048421
N	-1.2787484207	 3.3554085857	 0.0382798226	-0.245356
C	-0.179042454	 4.0269686694	 0.0262989219	-0.038808
C	 1.1488872779	 3.4161226626	 0.0046415829	 0.372577
N	 2.2316277026	 4.0669436245	-0.0072405401	-0.512352
O	 1.1291290307	 2.0097517909	-0.0022065379	-0.229527
H	-0.2098102964	 5.1115647261	 0.0322232984	 0.159974
H	 3.0485578909	 3.4572181781	-0.0217661249	 0.240522
95.4664	192.4298	289.7954	335.7826	352.7361	462.9956	474.4667	514.938	603.4264	624.6136	718.4044	726.4271	805.2792	845.3477	914.2375	932.2112	1050.2824	1189.2509	1222.9475	1322.993	1375.6449	1407.0992	1603.0286	1714.425	1759.1153	3195.9349	3506.5404
FC1=C(F)N=CC(=N)O1	FC1=C(F)[N]C=C([NH])O1	
InChI=1S/C4H2F2N2O/c5-3-4(6)9-2(7)1-8-3/h1,7H	InChI=1S/C4H2F2N2O/c5-3-4(6)9-2(7)1-8-3/h1,7H
