11
gdb 129155	2.87307	1.55695	1.01584	3.0594	64.97	-0.2734	-0.1176	0.1558	1035.0133	0.062742	-484.759917	-484.752125	-484.751181	-484.793327	26.799	
N	-0.0923078822	 1.3058149492	-0.1129829305	-0.468711
C	-0.0638741651	 0.0408408631	-0.0265223043	 0.314618
N	 1.1971511318	-0.6569769688	 0.0881157023	-0.111289
N	 1.2948687095	-1.8243638303	 0.3842952338	 0.060249
O	-0.0084663102	-2.6107607549	 0.5913910857	-0.23092
N	-1.1769794607	-2.073909017	 0.2585195773	-0.053279
C	-1.2348617475	-0.8131374908	-0.0460291419	 0.210404
C	-2.5837850661	-0.2689907664	-0.4353038907	 0.122608
O	-3.5878662416	-0.9297653849	-0.4256828174	-0.22807
H	 0.8566771017	 1.6880073418	-0.0926471517	 0.251846
H	-2.5635771098	 0.7955788191	-0.7299943726	 0.132545
42.5285	87.6886	199.8155	260.687	288.4604	355.6336	394.8876	458.023	493.3633	552.6775	652.2385	784.5749	803.8743	863.4213	928.4901	999.5233	1033.4257	1107.7812	1195.4107	1361.6724	1418.2101	1556.7434	1704.5142	1736.5807	1820.8935	2983.4458	3455.7854
N=C1N=NON=C1C=O	[NH]C1=N[N]ON=C1C=O	
InChI=1S/C3H2N4O2/c4-3-2(1-8)6-9-7-5-3/h1,4H	InChI=1S/C3H2N4O2/c4-3-2(1-8)6-9-7-5-3/h1,4H
