11
gdb 21403	3.96449	2.06241	1.35665	0.4888	56.64	-0.2741	-0.0856	0.1885	805.0577	0.073172	-430.722352	-430.716084	-430.71514	-430.753099	23.001	
N	-0.0595152543	 1.275651196	 0.3757330596	-0.542255
C	-0.0163434046	 0.0913330984	-0.049546112	 0.506943
N	-1.1557196036	-0.6892258882	-0.1430624427	-0.396691
C	-1.2001359189	-1.9877046832	-0.5946854174	 0.429522
O	-2.2122264151	-2.6454862799	-0.6651869236	-0.342515
C	 0.1415294022	-2.4832612635	-0.9843220393	-0.066011
N	 1.2300560589	-1.8192167466	-0.9238264753	-0.021278
O	 1.1623599357	-0.5087334223	-0.4500418827	-0.274973
H	 0.8641823152	 1.7020800718	 0.378642622	 0.246369
H	-2.0188327832	-0.2499872833	 0.1501470281	 0.288476
H	 0.2200765676	-3.4991088592	-1.3557627866	 0.172412
108.2185	141.5723	369.4589	373.2445	503.0368	512.9522	568.1927	659.9206	707.1711	723.5231	756.7281	809.3434	909.8745	918.9066	923.0072	998.5455	1098.6007	1267.6874	1329.3721	1385.3224	1424.0887	1669.7236	1785.6833	1822.6497	3210.2886	3538.2905	3603.4031
N=C1NC(=O)C=NO1	[NH][C]1NC(=O)C=NO1	
InChI=1S/C3H3N3O2/c4-3-6-2(7)1-5-8-3/h1H,(H2,4,6,7)	InChI=1S/C3H3N3O2/c4-3-6-2(7)1-5-8-3/h1H,(H2,4,6,7)
