11
gdb 130779	3.2338	1.50265	1.02593	5.3364	67.72	-0.2951	-0.1301	0.165	1025.986	0.066181	-451.554524	-451.547564	-451.54662	-451.586374	25.036	
O	 0.016613123	 0.0139921868	 0.4075884373	-0.294155
C	 0.0385974061	 1.1554899029	 0.055814422	 0.439668
O	-1.1601860314	 1.7498872512	-0.3406807032	-0.251351
N	-1.2919294719	 3.0514724762	-0.7694574162	-0.031028
C	-0.2201193041	 3.7709335499	-0.8047425228	 0.041669
C	 1.082223164	 3.3098682067	-0.4315727463	-0.179154
C	 1.2201285726	 2.030318565	-0.0085771313	-0.018278
C	 2.4751268282	 1.4807211687	 0.3838194654	 0.271342
N	 3.5061163543	 1.0594091383	 0.6967705015	-0.303741
H	-0.3769295087	 4.7874368578	-1.1491088499	 0.16249
H	 1.9319449378	 3.9802606765	-0.4907209565	 0.162538
95.5125	150.4802	186.1787	328.7941	395.4861	465.5462	504.7291	556.212	591.1452	605.3138	720.8249	795.9053	891.1811	897.9523	926.6783	983.3786	1041.8344	1076.7058	1238.3582	1348.9556	1369.6146	1592.7821	1664.3047	1859.7475	2351.3247	3199.1995	3211.8608
O=C1ON=CC=C1C#N	O=c1onccc1C#N	
InChI=1S/C5H2N2O2/c6-3-4-1-2-7-9-5(4)8/h1-2H	InChI=1S/C5H2N2O2/c6-3-4-1-2-7-9-5(4)8/h1-2H
