11
gdb 132896	3.14701	1.45247	0.99379	2.2883	58.17	-0.2412	-0.0793	0.1618	1031.4521	0.065334	-533.829964	-533.823157	-533.822213	-533.861494	25.518	
O	-0.0337253789	 1.2762293888	 0.1535055696	-0.365109
C	 0.0326230204	-0.049237705	 0.0566371305	 0.285453
N	 1.1636059518	-0.6659659275	 0.0291884365	-0.37039
C	 1.13050271	-2.0221207457	-0.071553096	 0.244842
F	 2.3134134457	-2.620109489	-0.0967802358	-0.060687
C	-0.0074248532	-2.7298927764	-0.1420824098	-0.100454
O	-1.206789055	-2.0815135129	-0.1133985807	-0.198514
C	-1.2968498178	-0.7163738819	-0.0139876075	 0.400046
O	-2.3619591484	-0.1707034003	 0.0092950359	-0.313607
H	 0.8763366278	 1.6069002196	 0.192527578	 0.316461
H	-0.0917473124	-3.8027586596	-0.2227039807	 0.16196
98.9384	223.5447	319.1914	363.5128	371.5272	441.0092	477.1477	538.6609	600.0944	618.5145	644.9405	677.4158	798.1358	803.0558	822.796	1007.41	1095.4512	1190.7301	1233.3016	1308.28	1408.7125	1440.8405	1637.8226	1694.6647	1852.903	3255.6796	3753.9885
OC1=NC(F)=COC1=O	Oc1nc(F)coc1=O	
InChI=1S/C4H2FNO3/c5-2-1-9-4(8)3(7)6-2/h1H,(H,6,7)	InChI=1S/C4H2FNO3/c5-2-1-9-4(8)3(7)6-2/h1H,(H,6,7)
