11
gdb 23727	5.83892	1.56771	1.23588	3.1688	57.11	-0.2316	-0.0755	0.1561	850.4044	0.073428	-438.734676	-438.728756	-438.727812	-438.764861	22.343	
F	 0.0233256625	 0.0062681266	 0.0031477654	-0.07113
C	-0.0337427997	 1.3348084357	 0.0105499356	 0.298696
C	-1.2326422447	 1.9707613854	 0.0297986979	-0.138264
N	-1.2234318568	 3.3377003319	 0.0364987984	-0.326532
C	-0.0619568351	 4.1194651569	 0.0247956924	 0.393547
O	-0.0994279923	 5.3361405524	 0.0315024963	-0.384938
C	 1.1436088785	 3.2829997495	 0.0045397077	-0.100892
N	 1.146120124	 1.9829209764	-0.0020009728	-0.251923
H	-2.1865256781	 1.4614922461	 0.0400422009	 0.157007
H	-2.093166831	 3.8531736491	 0.050743972	 0.276338
H	 2.0945085326	 3.8086511902	-0.0055347939	 0.148091
123.2984	346.1858	373.8286	410.4267	448.0279	516.3024	518.5439	632.5683	708.3328	776.2495	802.219	844.7851	853.8718	943.6659	989.096	1157.298	1216.0975	1310.9256	1337.9284	1409.695	1466.1837	1568.072	1677.0307	1789.4546	3177.3634	3229.028	3604.8492
FC1=CNC(=O)C=N1	Fc1c[nH]c(=O)cn1	
InChI=1S/C4H3FN2O/c5-3-1-7-4(8)2-6-3/h1-2H,(H,7,8)	InChI=1S/C4H3FN2O/c5-3-1-7-4(8)2-6-3/h1-2H,(H,7,8)
