11
gdb 23937	9.82145	0.68344	0.63898	3.7511	85.83	-0.2612	-0.0842	0.177	1569.8052	0.067507	-414.423927	-414.416828	-414.415884	-414.456381	24.804	
N	 0.1128688707	-3.704564584	-0.0190121564	-0.326305
C	 0.0687945897	-2.5427187949	-0.0120862148	 0.159371
C	 0.0162260549	-1.181996421	-0.0039639291	 0.327517
C	-0.032900502	 0.0289303588	 0.0032560869	-0.095821
C	-0.1156686104	 1.4214536937	 0.011932404	 0.137298
C	-1.1577222585	 2.3081125922	 0.0312753726	-0.198484
N	-0.6652973547	 3.5944099293	 0.0313420836	-0.235678
C	 0.6226565961	 3.4416894044	 0.0125311938	 0.07173
O	 1.0456677993	 2.1647967225	-0.0002732058	-0.161752
H	-2.214123623	 2.0933565148	 0.0448711886	 0.153438
H	 1.3854822979	 4.2047217141	 0.0059971768	 0.168687
76.7373	85.6791	219.7586	234.9476	435.6585	454.2416	500.1634	573.9526	589.7235	651.788	686.0194	863.4025	887.8371	918.4997	954.0819	1012.7179	1136.8979	1159.5753	1243.5436	1304.6091	1341.1269	1511.0476	1601.3935	2259.4452	2374.0923	3274.9085	3280.2313
N#CC#CC1=CN=CO1	N#CC#Cc1cnco1	
InChI=1S/C6H2N2O/c7-3-1-2-6-4-8-5-9-6/h4-5H	InChI=1S/C6H2N2O/c7-3-1-2-6-4-8-5-9-6/h4-5H
