11
gdb 24967	5.39006	1.39334	1.10714	4.1656	57.14	-0.227	-0.0076	0.2194	963.0535	0.067141	-492.530952	-492.524815	-492.523871	-492.561896	23.039	
O	-0.0619962601	 0.0257000174	 0.0045109986	-0.331894
C	-0.024605273	 1.2070634398	 0.0099872196	 0.466818
O	-1.1650922324	 2.0331821569	 0.0299104107	-0.254317
C	-0.6489240211	 3.2857184541	 0.0288680777	 0.372908
C	 0.6840008318	 3.2969275417	 0.0103970889	 0.224765
O	 1.1170120317	 1.9810149576	-0.0021225385	-0.251005
C	 1.0854816237	 4.6639931056	 0.0120838093	-0.336437
C	-0.101112799	 5.3478612708	 0.0322645065	-0.00484
O	-1.2022710743	 4.4929689616	 0.0429817623	-0.19068
H	 2.070988972	 5.0981248783	 0.000631029	 0.146594
H	-0.3477724393	 6.3943368561	 0.0410710659	 0.158089
79.5181	240.6138	341.2574	357.5519	587.7273	590.0049	613.3214	651.7945	713.9936	758.5027	768.1252	805.8536	817.5458	889.2841	931.5481	962.6021	1009.2972	1134.4565	1218.1585	1276.8792	1438.1795	1501.4263	1512.1826	1719.8178	1960.7734	3279.1264	3311.9761
O=C1OC2=C(O1)C=CO2	O=c1oc2c(o1)cco2	
InChI=1S/C5H2O4/c6-5-8-3-1-2-7-4(3)9-5/h1-2H	InChI=1S/C5H2O4/c6-5-8-3-1-2-7-4(3)9-5/h1-2H
