11
gdb 27033	2.97991	1.38692	0.94643	3.6991	64.12	-0.225	-0.0205	0.2045	1107.6396	0.063728	-492.511222	-492.503455	-492.502511	-492.543681	28.056	
O	 0.1604286342	 1.3584496854	 0.0065290397	-0.400603
C	 0.0038449261	 0.0418546881	 0.0008853177	 0.286451
C	-1.1020355971	-0.7212117486	 0.0029585966	 0.068066
O	-0.6538321658	-2.0650971499	-0.0063011923	-0.241689
C	 0.6919064495	-2.0667527114	-0.0134794827	 0.493952
O	 1.4179350154	-3.0035629564	-0.0220163496	-0.356718
O	 1.1215345363	-0.7389678661	-0.0090383764	-0.239809
C	-2.4666081864	-0.4357165944	 0.0117286371	 0.268849
C	-3.6471403269	-0.1954472971	 0.0192923567	-0.410584
H	 1.104227097	 1.5628288473	 0.0038383489	 0.327946
H	-4.6868768123	 0.0209936932	 0.0259682443	 0.204139
125.5065	133.1668	183.98	222.782	331.5746	332.924	440.6662	462.6144	521.358	564.6353	647.1722	673.8021	680.8885	718.8617	766.7824	818.4825	930.4693	1015.7936	1170.6498	1198.9309	1327.9714	1419.0933	1789.634	1956.3407	2231.9668	3499.7685	3807.704
OC1=C(OC(=O)O1)C#C	Oc1c(oc(=O)o1)C#C	
InChI=1S/C5H2O4/c1-2-3-4(6)9-5(7)8-3/h1,6H	InChI=1S/C5H2O4/c1-2-3-4(6)9-5(7)8-3/h1,6H
