10
gdb 123324	2.0024	1.97497	0.9943	2.7807	67.46	-0.302	-0.0977	0.2043	1048.2768	0.053449	-430.393183	-430.386075	-430.385131	-430.425198	25.378	
C	 0.0919842868	-1.1642986997	-0.0052181297	-0.375564
C	 0.0234001385	 0.0350943456	 0.0025549241	 0.279143
C	-0.0091379862	 1.444427367	 0.0111004995	 0.160779
N	-1.1141471009	 2.1553015104	 0.0287267528	-0.141868
O	-0.7157803458	 3.4588849671	 0.0313936185	-0.131346
N	 0.6319400468	 3.5870732105	 0.0155957777	-0.115628
C	 1.097252774	 2.3618057129	 0.0027643729	 0.153352
C	 2.4849528472	 2.064410233	-0.0160053384	 0.258989
N	 3.6051932669	 1.7806916889	-0.0313979157	-0.312419
H	 0.1482723927	-2.2260448657	-0.0120175517	 0.224562
101.7914	160.4024	200.35	205.8924	441.3458	457.5742	529.8894	548.5265	628.1876	643.1939	658.3794	671.4753	700.9287	795.9313	925.9944	945.7251	1069.8471	1227.9272	1370.9443	1491.0137	1564.7737	2255.1849	2371.5507	3494.5112
C#CC1=NON=C1C#N	C#Cc1nonc1C#N	
InChI=1S/C5HN3O/c1-2-4-5(3-6)8-9-7-4/h1H	InChI=1S/C5HN3O/c1-2-4-5(3-6)8-9-7-4/h1H
