10
gdb 23720	6.08537	1.52794	1.22129	0.	51.45	-0.2722	-0.0708	0.2015	832.3715	0.060824	-462.757974	-462.752396	-462.751452	-462.787936	20.724	
F	 0.0003604461	 0.0514384164	 0.0035049141	-0.060663
C	-0.0144362123	 1.3765906653	 0.0106542228	 0.317935
C	-1.2366430699	 2.0455777289	 0.0302517082	-0.136724
N	-1.2707568756	 3.3772004435	 0.0376977524	-0.266065
C	-0.1087538352	 3.9920098525	 0.0256381752	 0.317935
F	-0.1235546037	 5.3171616643	 0.0327977313	-0.060662
C	 1.1134511013	 3.3230242224	 0.0060375593	-0.136725
N	 1.1475651742	 1.9913984257	-0.0014075402	-0.266066
H	-2.1764420163	 1.5032233199	 0.0397680035	 0.145518
H	 2.0532516315	 3.8653755409	-0.0034844265	 0.145518
142.0835	366.4826	405.1866	452.9636	453.079	532.8793	567.4986	652.6304	782.6827	794.0045	913.1345	923.5897	947.1969	1036.2854	1258.0677	1291.9042	1294.9393	1360.0647	1390.7696	1518.9068	1609.9639	1626.812	3186.9627	3190.4294
FC1=CN=C(F)C=N1	Fc1cnc(F)cn1	
InChI=1S/C4H2F2N2/c5-3-1-7-4(6)2-8-3/h1-2H	InChI=1S/C4H2F2N2/c5-3-1-7-4(6)2-8-3/h1-2H
