11
gdb 123320	6.98271	0.91305	0.80747	4.1019	75.34	-0.2845	-0.0829	0.2016	1277.1058	0.065517	-414.373356	-414.366072	-414.365127	-414.40541	26.325	
C	-0.015929937	-1.1980644531	-0.0028131059	-0.350511
C	-0.026935734	 0.0035632796	 0.0036411871	 0.240485
C	 0.0054450703	 1.4195754844	 0.0106122397	 0.235251
N	-1.1097235482	 2.1345627794	 0.0294674958	-0.170915
O	-0.7210798139	 3.451258732	 0.0310865501	-0.190792
C	 0.6302131072	 3.515159654	 0.0130462153	 0.353633
C	 1.1567683153	 2.2616621905	-0.0007400292	-0.417387
C	 1.2309088405	 4.7971010927	 0.0115752476	 0.237347
N	 1.7388418264	 5.836553145	 0.0100940025	-0.312117
H	-0.0200274957	-2.2607792348	-0.0083314905	 0.21163
H	 2.1932815591	 1.9729869004	-0.0163980927	 0.163376
106.7928	118.5154	203.1685	215.1048	433.8518	478.5456	511.7951	511.8778	583.4779	646.5848	673.2959	686.7182	692.0161	720.207	863.2625	975.4194	1017.927	1037.984	1143.2142	1254.3579	1404.4413	1464.3434	1609.0815	2251.5065	2358.8923	3297.938	3498.4529
C#CC1=NOC(=C1)C#N	C#Cc1noc(c1)C#N	
InChI=1S/C6H2N2O/c1-2-5-3-6(4-7)9-8-5/h1,3H	InChI=1S/C6H2N2O/c1-2-5-3-6(4-7)9-8-5/h1,3H
