11
gdb 131033	7.36487	0.94785	0.83978	3.3855	70.84	-0.285	-0.0984	0.1865	1236.3093	0.065042	-447.680421	-447.673112	-447.672168	-447.712623	25.702	
O	-0.1015979732	 0.0291748857	-0.0005462588	-0.219076
C	-0.0271976083	 1.2167661797	 0.0087749403	 0.213921
N	 1.2121213496	 1.9270330522	 0.00059576	 0.031516
N	 2.4329081593	 1.3524764099	-0.0183939428	-0.079244
N	 3.282537784	 2.320273609	-0.0201259859	-0.224831
C	 2.5516620631	 3.4945657881	-0.0012451843	 0.247259
N	 1.2483453574	 3.2620635908	 0.0116459094	-0.263564
C	 3.1395116897	 4.7783380489	 0.0029566401	 0.314799
C	 3.6619874707	 5.8600437239	 0.0062047962	-0.385945
H	-0.8604301907	 1.9351894735	 0.0245337851	 0.147782
H	 4.1208323084	 6.8185842182	 0.0091163508	 0.217384
89.6076	132.639	197.5003	247.2946	249.5598	451.5182	476.9139	552.3008	654.4625	670.7758	689.8343	693.4322	787.4104	794.4081	974.6431	1030.2437	1086.1807	1188.4277	1237.5367	1326.1579	1404.7611	1426.5802	1520.5639	1866.142	2257.015	3044.6276	3499.4511
O=CN1N=NC(=N1)C#C	O=Cn1nnc(n1)C#C	
InChI=1S/C4H2N4O/c1-2-4-5-7-8(3-9)6-4/h1,3H	InChI=1S/C4H2N4O/c1-2-4-5-7-8(3-9)6-4/h1,3H
