11
gdb 21893	5.92381	1.6623	1.29805	2.5132	55.95	-0.2408	-0.0876	0.1532	832.5135	0.074335	-430.747841	-430.741786	-430.740842	-430.778088	22.763	
O	-0.0220338801	 1.3158722442	 0.0097550654	-0.38892
C	 0.0353538634	-0.024668659	 0.0022856104	 0.489327
N	 1.1944869999	-0.6089906985	-0.0076684541	-0.302343
N	 1.1543680313	-1.9637036606	-0.0147441843	-0.265656
C	 0.0240716687	-2.7577778581	-0.0123880118	 0.406245
O	 0.0566822309	-3.9747947556	-0.0192544243	-0.383595
C	-1.1930792525	-1.9253262063	-0.000844178	-0.068077
N	-1.1942178006	-0.6343866903	 0.0061452915	-0.24085
H	 0.8869112463	 1.6443576429	 0.0061773083	 0.314283
H	 2.0567681784	-2.4200847202	-0.0225209056	 0.282846
H	-2.1438563857	-2.4547344883	 0.0018439825	 0.156741
111.8018	336.3421	376.7851	381.0699	473.6508	502.5302	528.2275	551.9759	637.0364	714.1946	795.5164	819.6218	851.556	983.5494	995.5639	1166.0891	1251.6297	1317.1431	1347.4413	1424.2595	1479.291	1574.7854	1660.9757	1792.0535	3164.3406	3599.8062	3792.2754
OC1=NNC(=O)C=N1	Oc1n[nH]c(=O)cn1	
InChI=1S/C3H3N3O2/c7-2-1-4-3(8)6-5-2/h1H,(H,5,7)(H,4,6,8)	InChI=1S/C3H3N3O2/c7-2-1-4-3(8)6-5-2/h1H,(H,5,7)(H,4,6,8)
