11
gdb 131185	3.58645	1.14412	0.8823	1.9669	57.14	-0.2537	-0.0598	0.1939	1173.1474	0.06341	-525.794711	-525.7869	-525.785956	-525.828344	26.64	
O	 0.2197066571	 1.3473491449	-0.067519977	-0.418122
C	 0.0895902322	 0.012774099	-0.0654871405	 0.220105
C	-0.1399885067	-0.828456882	-1.1143967528	 0.416882
O	-0.3624865381	-0.5777919095	-2.4142405864	-0.21823
C	 0.2118819783	-1.4172894395	-3.3595395313	 0.166435
O	-0.0164531098	-1.2730612289	-4.5118934237	-0.223211
O	-0.1984230595	-2.0788840757	-0.6473596436	-0.207914
N	 0.0166410042	-1.9930798642	 0.7599208028	-0.010286
N	 0.1712913364	-0.7674412943	 1.0472464375	-0.183081
H	 0.3515019005	 1.6335968129	 0.8448084239	 0.320686
H	 0.8624319253	-2.1769708627	-2.9018108489	 0.136736
40.4648	111.3688	147.2315	257.9668	278.5204	309.9302	397.4555	479.6658	528.5153	666.1765	690.4582	716.4333	736.0528	861.7235	1006.0741	1026.0522	1048.6558	1153.5228	1258.0877	1351.176	1404.2295	1420.6838	1451.7946	1739.8372	1899.6826	3045.1061	3806.7223
OC1=C(OC=O)ON=N1	Oc1c(OC=O)onn1	
InChI=1S/C3H2N2O4/c6-1-8-3-2(7)4-5-9-3/h1,7H	InChI=1S/C3H2N2O4/c6-1-8-3-2(7)4-5-9-3/h1,7H
