11
gdb 130871	2.85152	1.55369	1.00571	1.5836	61.48	-0.2846	-0.1468	0.1378	1037.2166	0.063924	-488.659917	-488.652555	-488.65161	-488.692378	25.667	
O	-0.9203077353	 1.2158378138	-0.160124891	-0.24334
C	 0.2010323419	 0.8344864152	 0.0712616341	 0.112061
C	 1.3880742278	 1.7367488424	-0.037740692	-0.047843
C	 1.2585242352	 3.0277577528	-0.4020032508	 0.00426
N	 2.3449414862	 3.8886294702	-0.5110705037	-0.119396
N	 3.5014740801	 3.5181042771	-0.2786969301	 0.090768
O	 3.7348549208	 2.1595182635	 0.1157118783	-0.255423
C	 2.724075201	 1.2214802949	 0.2539421584	 0.452293
O	 3.0020814808	 0.1042356783	 0.5888416512	-0.313845
H	 0.4306728486	-0.2005736454	 0.3775380867	 0.137219
H	 0.293644453	 3.4647887071	-0.630342071	 0.183247
91.7422	121.9408	193.0483	216.0427	337.1101	342.6753	489.9835	524.406	591.5709	593.0944	735.5909	784.854	842.162	914.6239	977.9296	1029.2129	1051.4441	1107.4326	1236.8611	1360.7711	1426.3079	1566.7319	1654.0716	1800.6381	1849.7774	2999.0812	3220.4642
O=CC1=CN=NOC1=O	O=Cc1cnnoc1=O	
InChI=1S/C4H2N2O3/c7-2-3-1-5-6-9-4(3)8/h1-2H	InChI=1S/C4H2N2O3/c7-2-3-1-5-6-9-4(3)8/h1-2H
