11
gdb 21340	6.22247	1.31254	1.13815	2.4341	55.63	-0.3257	-0.065	0.2607	947.0141	0.0727	-393.549993	-393.543459	-393.542515	-393.582047	22.402	
N	-0.2957077076	-0.8601061939	-0.8825414912	-0.290916
C	-0.107587667	 0.087041831	-0.2494952303	 0.26491
C	 0.1315968176	 1.3018006499	 0.5306546428	-0.444067
C	 1.4516611609	 1.9438293529	 0.2071936355	 0.341108
N	 2.2041946487	 2.4566051564	 1.1429263556	-0.136333
O	 3.2891694038	 2.9772532715	 0.5036260006	-0.14031
N	 3.2156637337	 2.7811055544	-0.8461333714	-0.048867
C	 2.0944796273	 2.1476318546	-1.0468062136	-0.09395
H	-0.6874064021	 2.004645983	 0.3334170632	 0.184665
H	 0.100065155	 1.0677379596	 1.5986971827	 0.192593
H	 1.7845721497	 1.8530114706	-2.0372996039	 0.171168
33.225	112.9434	284.5073	325.5263	375.7541	486.2758	651.5493	670.4606	753.8573	895.1352	895.6843	932.7764	945.0978	958.6557	1026.6607	1065.7999	1198.9293	1223.5238	1328.8901	1423.467	1454.3252	1464.8208	1612.6012	2372.4597	3043.3395	3101.302	3274.1135
N#CCC1=NON=C1	N#CCc1nonc1	
InChI=1S/C4H3N3O/c5-2-1-4-3-6-8-7-4/h3H,1H2	InChI=1S/C4H3N3O/c5-2-1-4-3-6-8-7-4/h3H,1H2
