11
gdb 133423	5.55561	1.04957	0.88279	3.7371	61.74	-0.2697	-0.112	0.1577	1149.0282	0.065181	-492.838426	-492.831569	-492.830625	-492.87044	24.152	
F	-0.0198575651	 0.0840181426	 0.003436063	-0.027923
C	-0.0416839196	 1.391678769	 0.0109616651	 0.409161
N	-1.2351069209	 1.9595785272	 0.0300268631	-0.282145
C	-1.1878243918	 3.2861503616	 0.0367051626	-0.033023
C	 0.0324134662	 3.9659403804	 0.0241652546	 0.223015
C	 0.0752247705	 5.459438259	 0.0318328189	 0.115184
O	 1.0793943865	 6.1182603212	 0.0220767999	-0.224832
N	 1.1906278339	 3.2903882533	 0.0049681442	-0.197761
N	 1.1589192876	 1.9730689505	-0.0018765138	-0.222917
H	-2.1364363803	 3.8189746948	 0.0523156235	 0.152387
H	-0.934454487	 5.9275844103	 0.047897729	 0.088853
76.1017	147.155	196.0921	338.5381	404.2795	415.1123	476.9904	563.2836	654.0961	658.1457	823.9749	836.8706	901.7117	976.8961	1038.9085	1067.1685	1145.2956	1236.5546	1344.0793	1362.0744	1443.4323	1475.0973	1557.1943	1597.771	1831.0275	2884.7165	3158.6828
FC1=NC=C(C=O)N=N1	Fc1ncc(C=O)nn1	
InChI=1S/C4H2FN3O/c5-4-6-1-3(2-9)7-8-4/h1-2H	InChI=1S/C4H2FN3O/c5-4-6-1-3(2-9)7-8-4/h1-2H
