11
gdb 23680	4.02136	1.96347	1.31931	2.7408	54.62	-0.2647	-0.0406	0.2241	810.5374	0.074182	-438.75726	-438.751526	-438.750582	-438.78725	21.713	
O	 0.0975485116	 1.3038894578	 0.1266078547	-0.382145
C	 0.0719863134	-0.0303459577	 0.0587253877	 0.464594
N	 0.0762910301	-0.5811785724	-1.1566107662	-0.351824
C	 0.0501226738	-1.9168599191	-1.1808198788	 0.029787
C	 0.0203410583	-2.6944741741	-0.0333725981	-0.288934
C	 0.0197708873	-1.9704229573	 1.1558624847	 0.353475
F	-0.0075139921	-2.621752404	 2.3060162847	-0.055711
N	 0.0447571083	-0.6612761634	 1.2330256527	-0.336628
H	 0.1152747354	 1.6210261736	-0.7871583672	 0.310321
H	 0.0532748776	-2.3799903553	-2.1640266652	 0.131219
H	-0.0008690137	-3.7746366781	-0.0480239589	 0.125846
196.3604	233.6468	365.1662	473.1245	525.5921	558.4129	580.7212	596.7658	725.9917	794.0975	818.6365	836.2737	998.0387	1006.7953	1045.4383	1096.8676	1235.03	1300.4262	1316.9186	1391.3167	1484.2929	1523.0401	1624.155	1646.1441	3170.7506	3239.5767	3778.531
OC1=NC=CC(F)=N1	Oc1nccc(F)n1	
InChI=1S/C4H3FN2O/c5-3-1-2-6-4(8)7-3/h1-2H,(H,6,7,8)	InChI=1S/C4H3FN2O/c5-3-1-2-6-4(8)7-3/h1-2H,(H,6,7,8)
