11
gdb 35162	2.68054	1.32988	1.01828	4.1009	68.42	-0.3067	-0.0647	0.242	1102.9703	0.063047	-414.348862	-414.340583	-414.339639	-414.382092	28.968	
C	-0.0898876829	-1.1996276612	 0.0212707034	-0.36215
C	-0.0261616053	-0.0006018762	 0.0204318167	 0.345313
C	 0.0221698809	 1.4292656513	-0.0037173536	-0.219853
O	 0.5354860363	 2.1134867811	 1.1424163995	-0.22755
C	 1.3321762065	 2.1706988267	-0.034999409	 0.141871
C	 2.5797429956	 1.4326802081	-0.0107436628	 0.284856
N	 3.5759914943	 0.8494008609	-0.0066018512	-0.309092
C	 1.387249968	 3.4561837254	-0.7060573169	 0.263105
N	 1.4119347658	 4.4730831644	-1.2526916423	-0.304461
H	-0.1350290792	-2.2619198005	 0.0264949284	 0.22822
H	-0.8117505601	 1.93814803	-0.4846727221	 0.159741
96.1958	110.297	135.6153	215.5828	235.0376	267.2533	429.9308	469.7281	493.9921	577.9094	591.4781	636.9191	657.1236	679.3902	700.5831	860.6394	901.1249	1028.6859	1070.2857	1207.5184	1290.0164	1397.7853	2249.983	2368.6601	2372.5428	3134.662	3495.5234
C#CC1OC1(C#N)C#N	C#C[C@H]1OC1(C#N)C#N	
InChI=1S/C6H2N2O/c1-2-5-6(3-7,4-8)9-5/h1,5H	InChI=1S/C6H2N2O/c1-2-5-6(3-7,4-8)9-5/h1,5H/t5-/m1/s1
