11
gdb 23806	3.39988	2.35058	1.38975	2.9323	58.2	-0.2488	-0.0778	0.171	780.5364	0.071941	-438.657238	-438.651096	-438.650152	-438.687747	22.771	
F	 0.049810577	 0.0595488932	 0.1945394811	-0.02629
C	-0.0216129542	 1.3659530461	 0.0662252086	 0.26427
C	-1.1882737579	 2.0186623896	-0.0405467544	-0.269601
C	-1.1266939101	 3.4498944262	-0.1758467143	 0.04288
N	-0.0513419155	 4.1557557466	-0.2031640185	-0.063563
O	 1.1529419149	 3.4575460224	-0.0905989678	-0.286826
C	 1.2502921282	 2.0816924229	 0.0453870846	 0.323245
N	 2.3683817583	 1.4971790756	 0.1437526819	-0.514563
H	-2.135739597	 1.4959326783	-0.0260241504	 0.141929
H	-2.0371784659	 4.0341252572	-0.2663718478	 0.149505
H	 3.1346138222	 2.171371752	 0.1078207271	 0.239016
109.4929	224.7657	315.2493	408.7244	469.1693	533.4926	554.8728	589.5941	747.8233	755.4584	864.8644	879.5507	889.3793	943.0872	944.4467	1024.5193	1056.5335	1228.1882	1307.2898	1348.5261	1411.2904	1627.8067	1702.9801	1742.1405	3189.4379	3224.0564	3485.651
FC1=CC=NOC1=N	FC1=C(ON=C[CH]1)[NH]	
InChI=1S/C4H3FN2O/c5-3-1-2-7-8-4(3)6/h1-2,6H	InChI=1S/C4H3FN2O/c5-3-1-2-7-8-4(3)6/h1-2,6H
