11
gdb 23872	2.99681	1.76701	1.41311	3.5219	44.	-0.29	0.0041	0.2941	835.892	0.06868	-525.089355	-525.081705	-525.080761	-525.121823	26.601	
N	-0.0540446591	 1.4931930739	 0.095549023	-0.496669
C	-0.0246418683	 0.0437467958	-0.001785718	-0.262346
C	-1.3806108498	-0.507784544	 0.1298779095	 0.306153
N	-2.4477084487	-0.9357512069	 0.2272818135	-0.298565
C	 0.6223684943	-0.4864663756	-1.3002476747	 0.282265
F	 1.8805362653	-0.0298220048	-1.3816634754	-0.076687
F	 0.6586560895	-1.8186674599	-1.3242459119	-0.0587
F	-0.0412940324	-0.0589281864	-2.3785298833	-0.06978
H	 0.8934089023	 1.8533144699	 0.0393090086	 0.254216
H	-0.5796032314	 1.8848913054	-0.6803781906	 0.256265
H	 0.5833944184	-0.3534235272	 0.8197197693	 0.163849
66.0761	140.3908	212.1023	238.2483	284.1541	356.5259	392.2082	451.36	526.6724	559.1701	612.3991	702.5248	810.3906	877.7073	944.4265	1140.0482	1170.1975	1204.5434	1236.1209	1270.0847	1351.9493	1403.7361	1662.6544	2377.9466	3059.0608	3504.9999	3591.3861
NC(C#N)C(F)(F)F	N[C@@H](C#N)C(F)(F)F	
InChI=1S/C3H3F3N2/c4-3(5,6)2(8)1-7/h2H,8H2	InChI=1S/C3H3F3N2/c4-3(5,6)2(8)1-7/h2H,8H2/t2-/m0/s1
