11
gdb 23635	4.14901	1.86662	1.28742	2.8495	55.34	-0.2516	-0.0532	0.1983	822.6585	0.074157	-438.757706	-438.751875	-438.750931	-438.787861	21.851	
F	 0.0467092267	 0.0594289153	 0.0025129574	-0.053385
C	-0.0183285601	 1.3797013623	 0.0106418263	 0.361804
C	-1.2314899477	 1.9941865644	 0.0306116846	-0.399259
C	-1.2902823545	 3.4356492734	 0.0393859764	 0.442045
O	-2.2651923949	 4.1575672806	 0.0565895885	-0.380789
N	 0.0177931703	 4.0068987083	 0.0245936042	-0.335008
C	 1.1548816684	 3.284447191	 0.0050807235	 0.121543
N	 1.1934090088	 1.9858558312	-0.0025740695	-0.320911
H	-2.1555941473	 1.4337935813	 0.0401445611	 0.136523
H	 0.0473193102	 5.0181295647	 0.0297248867	 0.274844
H	 2.08549361	 3.8454689775	-0.0045777491	 0.152593
176.9276	203.8786	377.8376	446.1426	489.4324	555.4637	560.5081	686.4092	759.4935	761.1913	788.875	865.7996	940.8723	970.7637	993.0556	1166.8554	1189.6057	1244.8115	1363.5098	1441.6424	1475.5546	1600.8167	1663.1221	1813.9035	3176.7291	3239.5631	3598.5045
FC1=CC(=O)NC=N1	Fc1cc(=O)[nH]cn1	
InChI=1S/C4H3FN2O/c5-3-1-4(8)7-2-6-3/h1-2H,(H,6,7,8)	InChI=1S/C4H3FN2O/c5-3-1-4(8)7-2-6-3/h1-2H,(H,6,7,8)
