11
gdb 8729	2.6687	1.90534	1.22401	3.8418	58.51	-0.3092	-0.0998	0.2094	915.5091	0.069211	-397.373812	-397.365818	-397.364874	-397.406736	27.508	
O	 0.1149240526	 1.448084205	-0.153718553	-0.401487
C	 0.0284190737	 0.0656696709	-0.0368227323	-0.085573
C	 0.6389694258	-0.6340810526	-1.1874997296	 0.261552
N	 1.1160954757	-1.183726068	-2.0844154319	-0.308231
C	 0.7248427301	-0.4035593738	 1.2698541551	 0.218247
O	 1.2847346777	 0.4246738533	 1.9522673638	-0.293456
C	 0.6389217213	-1.7990745176	 1.5904733907	 0.286964
C	 0.5352146858	-2.9745513567	 1.8255901965	-0.376571
H	 0.7324743682	 1.7305993872	 0.5431158373	 0.308703
H	-1.0242946821	-0.2505409709	 0.0202167423	 0.153382
H	 0.4558791812	-4.0134703268	 2.0414126011	 0.236469
56.7277	111.0086	166.5362	222.3717	273.9186	323.3943	426.5756	449.0916	470.2077	583.77	615.3449	669.0069	695.1315	731.9411	866.3109	959.0703	1094.7743	1156.7955	1238.4803	1337.8954	1426.9059	1774.0863	2221.1665	2358.3003	3003.5421	3488.7966	3658.8508
OC(C#N)C(=O)C#C	O[C@@H](C#N)C(=O)C#C	
InChI=1S/C5H3NO2/c1-2-4(7)5(8)3-6/h1,5,8H	InChI=1S/C5H3NO2/c1-2-4(7)5(8)3-6/h1,5,8H/t5-/m0/s1
