11
gdb 21373	5.5509	2.27952	1.61593	2.8529	57.61	-0.2353	-0.0348	0.2005	696.2541	0.075762	-393.573283	-393.568098	-393.567154	-393.602404	20.246	
N	-0.0329731312	 1.3484985793	 0.0100363267	-0.400604
C	 1.2902198958	 1.7853700915	-0.000328537	 0.020053
N	 2.1892424049	 0.8421280443	-0.0144607294	-0.340146
C	 1.4313537865	-0.3239937031	-0.0135980166	 0.155219
C	 1.4434386638	-1.6858774024	-0.0213771425	-0.030782
O	 0.168625394	-2.1326141839	-0.0113721969	-0.173446
N	-0.7545011158	-1.0623257135	 0.0036586221	-0.279473
C	 0.0419462709	-0.0235227841	 0.0016946545	 0.461373
H	-0.8560835669	 1.9252775901	 0.0217226091	 0.281936
H	 1.5114789722	 2.8442772811	 0.003460969	 0.14612
H	 2.2034139358	-2.4497585294	-0.0331256692	 0.159749
271.6094	331.9451	415.3207	502.4268	573.4784	639.3785	717.3366	752.6835	771.778	813.5288	869.9427	884.8549	941.4127	971.7852	1062.9977	1122.8637	1180.2824	1292.3307	1322.2304	1365.5953	1434.1093	1545.4326	1575.8758	1695.2194	3238.7882	3279.5638	3682.8197
N1C=NC2=CON=C12	[nH]1cnc2conc12	
InChI=1S/C4H3N3O/c1-3-4(7-8-1)6-2-5-3/h1-2H,(H,5,6,7)	InChI=1S/C4H3N3O/c1-3-4(7-8-1)6-2-5-3/h1-2H,(H,5,6,7)
