11
gdb 133520	3.3057	1.01797	0.9022	2.0382	47.84	-0.3013	-0.0591	0.2421	1205.8748	0.060502	-620.20185	-620.193432	-620.192488	-620.236832	27.904	
F	 0.0556052394	 0.0910942142	-0.0781214259	-0.042412
C	-0.0344735635	 1.406798903	 0.0404174792	 0.238177
F	 1.193005506	 1.9290067581	 0.0442660058	-0.062309
F	-0.7009797819	 1.8940999264	-1.0072387424	-0.062204
C	-0.7703414227	 1.7659841295	 1.3545083516	 0.308358
O	-1.1842425536	 0.9583364025	 2.1303125819	-0.315323
O	-0.8500358109	 3.1106126666	 1.4498125602	-0.1924
C	-1.4775096068	 3.6472538033	 2.5633349696	 0.121734
N	-1.5437835124	 4.8961257129	 2.6372029634	-0.401965
H	-1.8421216209	 2.8838372317	 3.249827345	 0.156815
H	-2.0231346727	 5.1730619517	 3.4928233016	 0.25153
29.2817	98.4389	104.6717	141.0214	259.9872	293.2332	351.4065	409.8563	520.5534	525.2772	606.4164	743.4681	779.3799	853.2775	898.155	979.6295	1066.206	1152.2364	1211.783	1237.847	1268.5109	1347.2896	1390.1533	1754.2539	1873.6699	3148.1595	3513.1258
FC(F)(F)C(=O)OC=N	FC(F)(F)C(=O)O[CH][NH]	
InChI=1S/C3H2F3NO2/c4-3(5,6)2(8)9-1-7/h1,7H	InChI=1S/C3H2F3NO2/c4-3(5,6)2(8)9-1-7/h1,7H
