11
gdb 132079	2.43409	1.86904	1.05723	3.0134	58.84	-0.2434	-0.0658	0.1776	977.9826	0.06501	-537.949706	-537.942863	-537.941918	-537.981328	25.143	
F	 0.0464135575	 0.053233486	 0.0025343108	-0.032025
C	-0.0262031725	 1.3688444761	 0.0108023927	 0.209784
C	-1.2178657458	 2.0029634175	 0.030634551	 0.045595
F	-2.3677970178	 1.3523112917	 0.0428090571	-0.026924
C	-1.2677501151	 3.4521490275	 0.0392927838	 0.318252
N	-2.3234111389	 4.1402938122	 0.0575286765	-0.52524
O	 0.0108512349	 4.0487223426	 0.0249779952	-0.216412
C	 1.1221535169	 3.2965779246	 0.0055454586	 0.134019
N	 1.1758952172	 2.0213647389	-0.0021479044	-0.309348
H	-2.1221208857	 5.1391286355	 0.0602407319	 0.238214
H	 2.0185605793	 3.9068834675	-0.0033488532	 0.164086
114.7385	173.9682	280.548	305.2329	340.9328	499.9651	515.4821	521.5825	565.2894	668.7424	702.3096	735.8475	832.8817	882.2614	942.9129	942.9499	1087.2342	1191.9604	1220.5147	1322.6266	1398.3901	1424.3436	1653.3073	1715.7028	1770.1474	3211.7719	3514.3982
FC1=C(F)C(=N)OC=N1	F[C@@H]1C(=C([NH])OC=N1)F	
InChI=1S/C4H2F2N2O/c5-2-3(6)8-1-9-4(2)7/h1,7H	InChI=1S/C4H3F2N2O/c5-2-3(6)8-1-9-4(2)7/h1,3,7H/t3-/m0/s1
