9
gdb 130574	3.86333	1.25687	0.94834	1.347	56.59	-0.337	-0.1438	0.1931	1068.8684	0.040937	-483.603998	-483.596882	-483.595938	-483.636599	23.844	
O	-0.0128457708	-0.0364590377	 0.0032295647	-0.240695
C	-0.0402013528	 1.1660711032	 0.0066721856	 0.24627
C	 1.188853944	 1.971821092	 0.0006265232	 0.277184
N	 2.176443611	 2.5718638095	-0.0043521795	-0.293503
C	-1.3026581349	 1.9410884683	 0.0169573852	 0.347581
N	-1.37881871	 3.2450964145	 0.0210375574	-0.114301
O	-2.6759137313	 3.5215539687	 0.0300296368	-0.126654
N	-3.4027277865	 2.2842466786	 0.0315813224	 0.066136
N	-2.5618085887	 1.3654484728	 0.0238142543	-0.162019
60.677	119.7696	186.206	243.1931	313.1832	453.7884	483.5968	514.0987	671.676	678.99	692.0879	820.394	983.7667	1017.2574	1051.3608	1142.125	1333.3218	1509.7958	1552.7253	1791.4191	2349.6299
O=C(C#N)C1=NON=N1	O=C(C#N)c1nonn1	
InChI=1S/C3N4O2/c4-1-2(8)3-5-7-9-6-3	InChI=1S/C3N4O2/c4-1-2(8)3-5-7-9-6-3
