11
gdb 131993	4.30626	1.33011	1.01622	1.1613	60.99	-0.2737	-0.131	0.1427	1029.7012	0.066388	-484.77562	-484.768952	-484.768008	-484.808033	23.317	
O	-0.0521546976	-0.0163800263	 0.0034750947	-0.312147
N	-0.0144613588	 1.1951054435	 0.0068556497	 0.39941
O	 0.985032005	 1.9006948223	 0.0022223294	-0.34932
C	-1.3217924319	 1.9325438255	 0.0174070246	 0.380038
C	-1.3330013847	 3.3236807638	 0.0206922033	 0.003886
N	-2.4980531813	 3.9719116376	 0.0300058362	-0.158196
N	-3.6237521898	 3.2659327376	 0.0360036109	-0.156813
C	-3.5384372381	 1.9351434062	 0.0324185672	 0.105447
N	-2.4118668495	 1.2123034355	 0.023108008	-0.255185
H	-0.4266073606	 3.9136991949	 0.0159493375	 0.179481
H	-4.4794637326	 1.3951331994	 0.0375197884	 0.1634
33.3938	145.364	240.5784	370.5207	383.6151	444.9993	523.5543	662.577	739.5124	756.3492	821.6095	875.4503	961.1298	998.767	1029.5157	1076.8495	1146.3403	1180.3494	1287.3694	1325.2953	1393.3207	1461.5779	1546.9426	1612.3602	1680.0501	3203.537	3239.9408
O=N(=O)C1=CN=NC=N1	O=N(=O)c1cnncn1	
InChI=1S/C3H2N4O2/c8-7(9)3-1-5-6-2-4-3/h1-2H	InChI=1S/C3H2N4O2/c8-7(9)3-1-5-6-2-4-3/h1-2H
