11
gdb 133440	3.15936	1.48879	1.01194	2.049	58.43	-0.2602	-0.0881	0.1721	1020.2302	0.065349	-529.9484	-529.9415	-529.940556	-529.980259	25.508	
O	-0.0500343802	 1.255278476	 0.1507451318	-0.348926
C	 0.0011289949	-0.0591084045	 0.0643468006	 0.403735
N	 1.1294645444	-0.6791234049	 0.0173808196	-0.395627
C	 1.0395887916	-2.0389911208	-0.0711466382	 0.393894
F	 2.2042924655	-2.6475802995	-0.1178396529	-0.043284
N	 0.0117680139	-2.8030322754	-0.1154654422	-0.170518
O	-1.217886891	-2.1166724018	-0.0635725405	-0.277349
C	-1.3025119413	-0.7528664457	 0.0262430389	 0.366562
N	-2.4021575658	-0.1311377632	 0.0731606434	-0.495563
H	 0.8645456623	 1.5800958401	 0.166872306	 0.321619
H	-3.1904120143	-0.7805014203	 0.0350560236	 0.245456
70.057	194.6287	328.6991	330.7677	372.602	412.8162	493.4896	544.6308	595.2427	641.7039	698.5005	709.8894	793.2819	815.2358	892.2208	948.3674	1047.7358	1093.184	1225.1188	1290.9383	1419.1041	1496.571	1643.9614	1676.0658	1740.2636	3477.4783	3732.3935
OC1=NC(F)=NOC1=N	OC1=C(ON=C([N]1)F)[NH]	
InChI=1S/C3H2FN3O2/c4-3-6-2(8)1(5)9-7-3/h5H,(H,6,7,8)	InChI=1S/C3H2FN3O2/c4-3-6-2(8)1(5)9-7-3/h5H,(H,6,7,8)
