11
gdb 133363	3.26682	1.47359	1.01552	4.6366	57.4	-0.2643	-0.0849	0.1794	1015.9783	0.065616	-529.98088	-529.973851	-529.972907	-530.012529	26.145	
N	-0.0079578116	 1.2804880912	-0.1101911529	-0.529082
C	-0.0475587428	-0.0494855751	-0.0444427828	 0.302368
N	-1.1584770009	-0.7298759171	-0.0308579675	-0.375502
C	-0.9876611945	-2.070498313	 0.0392910767	 0.383562
F	-2.1115498138	-2.7553971738	 0.0530889796	-0.045615
N	 0.077278823	-2.7963367973	 0.0952828884	-0.179879
O	 1.277647834	-2.044191489	 0.0797597475	-0.240164
C	 1.2961256462	-0.7029449585	 0.0128681916	 0.442927
O	 2.3297515228	-0.0819696216	 0.0011387212	-0.3457
H	 0.8963085189	 1.7263882054	-0.1158308071	 0.298705
H	-0.8586567013	 1.8165787089	-0.1525608748	 0.288379
106.8327	188.2642	314.9361	346.3748	365.9421	395.529	466.0571	500.1628	527.1297	614.9615	643.5342	695.3944	721.8382	805.3383	816.573	961.1713	1036.6	1170.4092	1216.1227	1396.3794	1468.471	1578.5004	1628.8761	1694.7254	1820.8658	3590.8077	3730.185
NC1=NC(F)=NOC1=O	Nc1nc(F)noc1=O	
InChI=1S/C3H2FN3O2/c4-3-6-1(5)2(8)9-7-3/h(H2,5,6,7)	InChI=1S/C3H2FN3O2/c4-3-6-1(5)2(8)9-7-3/h(H2,5,6,7)
