11
gdb 24900	3.54586	1.33631	0.97055	4.0773	68.22	-0.2908	-0.1141	0.1767	1079.2286	0.066733	-451.603226	-451.59633	-451.595386	-451.634994	24.813	
O	-0.1042878185	-0.0296850445	 0.0044187971	-0.301914
C	 0.0213953009	 1.1543816904	 0.0091338509	 0.425039
O	-1.1781945922	 1.9435848272	 0.0299700707	-0.233361
C	-1.1134405969	 3.2779115125	 0.0362822277	 0.335017
N	-0.0542695624	 4.0049933911	 0.0255907637	-0.303
C	 1.1388684146	 3.3139010283	 0.0053943453	 0.006403
C	 1.2208756295	 1.9633633259	-0.0030393722	-0.226165
C	-2.4147989877	 3.896825752	 0.0575788992	 0.296678
N	-3.4591036111	 4.3907279374	 0.0746596163	-0.299711
H	 2.0297446699	 3.9332980849	-0.0035512532	 0.14937
H	 2.1660120739	 1.4369070246	-0.0189331055	 0.151644
125.4163	148.8916	156.3959	338.7316	438.1451	459.8766	480.1497	527.4151	590.0974	719.9036	740.1495	779.479	820.5061	864.0121	975.3687	1021.077	1049.618	1134.6893	1266.2891	1306.4051	1428.4633	1580.1052	1654.9298	1894.8963	2365.4306	3193.5306	3232.2423
O=C1OC(=NC=C1)C#N	O=c1oc(ncc1)C#N	
InChI=1S/C5H2N2O2/c6-3-4-7-2-1-5(8)9-4/h1-2H	InChI=1S/C5H2N2O2/c6-3-4-7-2-1-5(8)9-4/h1-2H
