11
gdb 130666	3.09487	0.76528	0.64769	2.6887	66.57	-0.2462	-0.0715	0.1747	1589.811	0.058265	-451.567178	-451.556012	-451.555068	-451.609472	32.866	
O	-0.2412703915	 0.2180356053	 0.6691150934	-0.160627
C	 0.6325660594	 0.9353745663	 0.4646205751	 0.513519
N	-2.4463565797	 2.478272494	-0.7777053936	-0.002925
N	-3.1317947376	 3.3358799129	-0.7382662395	-0.001216
O	 0.2034137486	 3.6967065673	 0.3755103359	-0.281259
C	 1.3058906844	 3.2332266234	 0.206346742	 0.126452
C	 1.6387913894	 1.7896211106	 0.2309207336	-0.335786
C	 2.9493416163	 1.2917302245	 0.0248460031	 0.247177
C	 4.0772872774	 0.9109772517	-0.1551949819	-0.416012
H	 2.1986096958	 3.8609828461	 0.0133446584	 0.10285
H	 5.0706245675	 0.570552758	-0.3139389464	 0.207826
6.4474	20.0247	38.6595	45.3536	78.9131	121.1806	149.2108	155.6659	229.6799	408.8275	443.8749	519.9681	526.186	604.5942	651.7402	698.8532	806.4961	1018.9244	1195.3768	1325.0303	1420.9932	1773.5918	2225.2724	2239.6062	2432.6335	2936.7561	3501.6516	6.4486	20.0246	38.6594	45.3536	78.913	121.18	149.2111	155.6663	229.6802	408.8273	443.8723	519.9677	526.1858	604.5946	651.7402	698.8523	806.4961	1018.9239	1195.3768	1325.0303	1420.9923	1773.5921	2225.2723	2239.6062	2432.6335	2936.756	3501.6516
O=C1N=NOC=C1C#C	[O][C][C](C=O)C#C.N#N	
InChI=1S/C5H2N2O2/c1-2-4-3-9-7-6-5(4)8/h1,3H	InChI=1S/C5H2O2.N2/c1-2-5(3-6)4-7;1-2/h1,3H;
