10
gdb 20482	3.7323	2.00262	1.31886	3.3544	56.63	-0.227	-0.0914	0.1356	814.5421	0.059975	-450.577972	-450.571292	-450.570348	-450.609478	22.5	
C	 0.0255440635	 1.3270799382	-0.0624212935	 0.032443
O	 1.2389927438	 2.0128690449	 0.1936132907	-0.231237
C	 2.2070780328	 1.1040236677	 0.5767149136	 0.382168
C	 1.470765229	-0.140291971	 0.7320959672	 0.248754
O	 0.1166125129	 0.0354973499	 0.5433173289	-0.259973
N	 1.9612529375	-1.2836886109	 1.0648742305	 0.115207
N	 2.4024264037	-2.2965644686	 1.3558606261	-0.220472
O	 3.3597095294	 1.3767533711	 0.732075026	-0.343247
H	-0.8071891738	 1.8667022904	 0.393961947	 0.147343
H	-0.1153140288	 1.2238713384	-1.1473048666	 0.129014
92.9529	154.1981	158.9632	243.8392	417.2069	454.6257	554.7861	625.6117	715.839	739.2263	767.921	966.6776	1064.2384	1092.0807	1147.1388	1217.9157	1295.43	1422.1713	1473.6488	1543.2225	1884.3099	2174.621	3009.4427	3109.7992
C1OC2=C(O1)N=NO2	C1OC(=O)[C](O1)[N][N]	
InChI=1S/C3H2N2O3/c1-6-2-3(7-1)8-5-4-2/h1H2	InChI=1S/C3H2N2O3/c4-5-2-3(6)8-1-7-2/h1H2
