10
gdb 130830	4.69706	1.0728	0.87333	2.2762	55.57	-0.2825	-0.1376	0.1449	1160.4905	0.051293	-504.677885	-504.670383	-504.669439	-504.711289	24.823	
O	-0.0515384409	 0.0012168254	 0.0021501221	-0.195045
C	-0.0315916335	 1.1987040011	 0.0082584115	 0.088424
C	 1.3195968252	 1.9594765828	-0.0012064793	 0.232951
O	 2.3735056996	 1.3825522898	-0.014342756	-0.239078
C	 1.2408880301	 3.446816641	 0.0086888156	 0.323555
N	 0.1298653993	 4.135116058	 0.023389934	-0.111748
O	 0.4997589076	 5.4130142267	 0.0278408021	-0.134745
N	 1.9305100024	 5.4653868468	 0.0142545145	 0.066359
N	 2.3437463357	 4.2908632152	 0.0031770799	-0.163513
H	-0.9462697955	 1.8222322333	 0.0210181356	 0.13284
53.9401	76.6792	152.9327	203.0888	290.1894	383.1055	487.401	519.9607	557.2582	676.1195	763.1755	834.9213	961.3138	984.5652	1010.2952	1046.0925	1127.6714	1312.8668	1407.2898	1504.6108	1552.7504	1808.8791	1843.0038	2956.8044
O=CC(=O)C1=NON=N1	O=CC(=O)c1nonn1	
InChI=1S/C3HN3O3/c7-1-2(8)3-4-6-9-5-3/h1H	InChI=1S/C3HN3O3/c7-1-2(8)3-4-6-9-5-3/h1H
