11
gdb 131281	6.1024	1.07262	0.91227	4.9865	68.19	-0.2679	-0.1039	0.1641	1135.9616	0.067438	-447.750947	-447.744189	-447.743245	-447.782497	24.637	
O	 0.0711529522	 1.29464615	 0.108693873	-0.366141
C	 0.0621231719	-0.0302995787	 0.0426931932	 0.512347
N	 0.0946528756	-0.6001856598	-1.1672012578	-0.31703
C	 0.0831401477	-1.9212309702	-1.1590197951	-0.037046
C	 0.0396842861	-2.6221312635	 0.0531079449	 0.201591
N	 0.0088880858	-1.9694568678	 1.2275584918	-0.215729
N	 0.0199585106	-0.6565873228	 1.2311535263	-0.214064
C	 0.0266002452	-4.0522062063	 0.083402188	 0.263256
N	 0.0175638136	-5.2085439065	 0.0577745387	-0.310943
H	 0.1020312776	 1.6291792225	-0.7991871991	 0.321217
H	 0.1082795137	-2.4392279871	-2.113703294	 0.162542
88.7869	156.5386	245.8071	400.7668	439.9935	463.6168	513.8731	564.6959	564.9953	615.6051	675.5635	755.0447	845.7335	893.8962	992.7017	1058.1984	1116.3009	1215.1797	1265.7938	1364.3491	1399.4739	1498.9167	1550.7129	1610.7776	2355.0366	3178.4533	3771.226
OC1=NC=C(N=N1)C#N	Oc1ncc(nn1)C#N	
InChI=1S/C4H2N4O/c5-1-3-2-6-4(9)8-7-3/h2H,(H,6,8,9)	InChI=1S/C4H2N4O/c5-1-3-2-6-4(9)8-7-3/h2H,(H,6,8,9)
