11
gdb 130571	3.7615	1.24193	0.93366	5.272	63.86	-0.3043	-0.1149	0.1893	1114.1525	0.066062	-451.548204	-451.54104	-451.540096	-451.580701	24.912	
O	 0.0370476057	-0.0390967654	 0.0022405905	-0.271046
C	-0.0364672619	 1.166647222	 0.0067815686	 0.225521
C	 1.181559297	 1.9952091794	 0.000575476	 0.27204
N	 2.1682931739	 2.5966298369	-0.0046218939	-0.309202
C	-1.3216455502	 1.8892114595	 0.0173676985	 0.304347
N	-1.3558771767	 3.2071352042	 0.0214939924	-0.17001
O	-2.684014201	 3.5383153142	 0.0312216223	-0.150037
C	-3.4278455712	 2.4118773108	 0.0327825335	 0.091057
C	-2.6267000591	 1.3199525198	 0.0243249332	-0.328382
H	-4.4958884387	 2.5597941974	 0.0402484933	 0.175317
H	-2.8917201178	 0.2772506813	 0.0230243956	 0.160395
69.9752	120.5795	180.7343	239.9796	314.6631	450.8197	483.8925	615.2351	654.2641	676.3776	797.9917	830.0803	892.634	924.9236	957.9462	988.9326	1041.9801	1087.4068	1138.6777	1312.889	1454.9748	1475.7633	1582.4783	1772.9376	2348.605	3277.6078	3305.7313
O=C(C#N)C1=NOC=C1	O=C(C#N)c1nocc1	
InChI=1S/C5H2N2O2/c6-3-5(8)4-1-2-9-7-4/h1-2H	InChI=1S/C5H2N2O2/c6-3-5(8)4-1-2-9-7-4/h1-2H
