11
gdb 131334	3.67429	1.7858	1.20173	1.2287	57.84	-0.2365	-0.054	0.1825	892.2946	0.068224	-480.989613	-480.983306	-480.982362	-481.020245	23.787	
O	 0.0665229378	 1.3368836311	 0.1730696254	-0.409147
C	 0.0710723917	 0.0103566334	 0.0428916649	 0.461025
N	 0.0874691484	-0.7031789587	-1.0501860435	-0.318994
N	 0.0853285231	-2.0733135877	-0.7211544898	-0.350596
C	 0.0674940452	-2.0785857014	 0.5797691823	 0.56511
N	 0.0545285426	-2.8822202268	 1.6859259633	-0.36736
N	 0.0398050358	-2.1169972593	 2.8114131328	-0.039865
N	 0.0412668327	-0.8781195997	 2.5062986084	-0.120295
N	 0.0576289122	-0.8250436342	 1.1324806746	-0.054423
H	 0.0769250963	 1.7060099674	-0.7204892909	 0.326654
H	 0.0579700543	-3.8841958639	 1.7653121225	 0.307889
199.0316	227.552	285.8249	370.1915	375.4518	443.9137	564.4871	660.2118	672.0719	684.4618	700.3913	738.7563	844.651	1014.2583	1019.6347	1047.9891	1167.1565	1213.1166	1256.6183	1335.5837	1412.5168	1453.2815	1474.8701	1628.0079	1667.1391	3698.3436	3791.2511
OC1=NN=C2NN=NN12	Oc1nnc2[nH]nnn12	
InChI=1S/C2H2N6O/c9-2-5-3-1-4-6-7-8(1)2/h(H,5,9)(H,3,4,7)	InChI=1S/C2H2N6O/c9-2-5-3-1-4-6-7-8(1)2/h(H,5,9)(H,3,4,7)
