11
gdb 132259	3.51143	1.26476	0.92984	3.4801	67.36	-0.2948	-0.0987	0.1961	1101.4832	0.067134	-455.748667	-455.742056	-455.741112	-455.780123	24.087	
F	-0.0067421118	 0.0524078646	 0.0035421608	-0.048003
C	-0.0217022898	 1.3729891887	 0.0107398477	 0.30481
N	-1.1913370066	 1.9577990039	 0.0296462322	-0.338444
C	-1.1676357647	 3.300708931	 0.0364061342	 0.19859
C	 0.0308545278	 4.0174390488	 0.0239731182	-0.042583
N	 1.2113176781	 3.3934953537	 0.0047024305	-0.214905
C	 1.1952527295	 2.0670360587	-0.0020795056	-0.109463
C	-2.4252586674	 3.9952913177	 0.0570900671	 0.254983
N	-3.4159746227	 4.5914760615	 0.0736422397	-0.308437
H	 0.031650965	 5.1021060818	 0.0296865197	 0.15148
H	 2.1403555227	 1.5333766796	-0.0176970544	 0.151972
141.8433	152.4623	214.1019	406.9622	412.08	484.5595	506.2081	560.2097	605.4934	685.6739	710.4723	771.8586	920.603	967.9095	1009.8119	1021.6416	1186.7353	1248.409	1266.1366	1337.6228	1450.3856	1467.3057	1598.5155	1602.6183	2355.0343	3186.4675	3197.0906
FC1=NC(=CN=C1)C#N	Fc1nc(cnc1)C#N	
InChI=1S/C5H2FN3/c6-5-3-8-2-4(1-7)9-5/h2-3H	InChI=1S/C5H2FN3/c6-5-3-8-2-4(1-7)9-5/h2-3H
