10
gdb 21873	7.17222	1.38568	1.16131	6.1473	55.04	-0.2709	-0.0424	0.2285	905.0196	0.062973	-409.676885	-409.670668	-409.669724	-409.707329	22.463	
O	 0.1193606531	 1.2965135018	 0.1637611269	-0.412434
C	 0.0758272554	-0.0229447693	 0.0038413095	 0.46102
N	 0.1131664564	-0.7018981432	-1.1181736102	-0.390952
C	 0.0354314677	-1.9948998494	-0.6669730607	 0.245406
N	-0.0456094768	-2.1404805362	 0.6470413394	-0.251086
N	-0.0182550571	-0.8502609566	 1.0662479795	-0.241506
C	 0.0405011034	-3.1179430229	-1.5462150025	 0.284505
N	 0.0456347158	-4.0193699042	-2.2695830242	-0.327114
H	 0.1854795917	 1.6931752211	-0.7151984122	 0.331634
H	-0.0656429095	-0.626710961	 2.0470966646	 0.300526
152.0376	164.8321	328.6809	412.1654	425.6675	504.3106	552.9866	560.1682	592.8116	735.9881	768.4653	769.9147	1018.0774	1083.9796	1155.7853	1188.8211	1334.8258	1386.4481	1483.1206	1544.4861	1647.0132	2369.703	3665.7072	3796.1465
OC1=NC(=NN1)C#N	Oc1nc(n[nH]1)C#N	
InChI=1S/C3H2N4O/c4-1-2-5-3(8)7-6-2/h(H2,5,6,7,8)	InChI=1S/C3H2N4O/c4-1-2-5-3(8)7-6-2/h(H2,5,6,7,8)
