11
gdb 133424	6.19703	1.04614	0.89505	3.4989	69.64	-0.259	-0.0941	0.1648	1147.5572	0.065049	-455.666248	-455.659355	-455.658411	-455.697925	25.351	
F	-0.0144202353	 0.078728463	 0.0035892497	-0.036844
C	-0.0350146499	 1.3898693539	 0.0114036472	 0.390261
N	-1.2326782113	 1.9558755684	 0.029822973	-0.272944
C	-1.2001996244	 3.277578112	 0.0358305295	-0.048834
C	 0.0229149331	 3.9732954359	 0.0230258903	 0.161494
N	 1.1851544111	 3.2981019523	 0.0041780682	-0.231024
N	 1.1544565323	 1.9750936241	-0.001889429	-0.230779
C	 0.0662651391	 5.394489769	 0.0295389863	 0.262253
C	 0.0626176859	 6.597058562	 0.0355616636	-0.359905
H	-2.1473536232	 3.8093244698	 0.0510717293	 0.152147
H	 0.0761972926	 7.6596366895	 0.0406326919	 0.214175
88.0098	145.399	239.3876	400.0658	445.9521	466.4554	484.9868	549.5788	598.2497	646.1267	665.054	679.2735	750.6729	836.0301	895.9217	987.4083	1065.5521	1136.3371	1251.5536	1337.6022	1363.5052	1465.386	1542.0327	1596.6681	2238.9043	3178.5779	3498.6506
FC1=NC=C(N=N1)C#C	Fc1ncc(nn1)C#C	
InChI=1S/C5H2FN3/c1-2-4-3-7-5(6)9-8-4/h1,3H	InChI=1S/C5H2FN3/c1-2-4-3-7-5(6)9-8-4/h1,3H
