10
gdb 21393	5.94156	2.37038	1.6944	4.4321	52.61	-0.2675	-0.0446	0.2229	657.6001	0.064126	-405.777157	-405.772088	-405.771144	-405.806252	18.991	
N	 0.021378832	 1.341026721	 0.0096564151	-0.342759
N	 1.3127053945	 1.8017062739	-0.0004245989	-0.181449
C	 2.0742677503	 0.7410158293	-0.0139713853	 0.039492
N	 1.2959254971	-0.3950766737	-0.0125681234	 0.022249
N	 1.3319220692	-1.7618008477	-0.0203924225	-0.161989
N	 0.0821560884	-2.115188742	-0.0111161818	-0.084004
N	-0.794518092	-1.0701791282	 0.0040949473	-0.348834
C	-0.0042919369	-0.0123457914	 0.0023945364	 0.563163
H	-0.7431181105	 1.9925835162	 0.0223437953	 0.305444
H	 3.1501899379	 0.7529367725	-0.0244640723	 0.188687
231.6874	332.0967	412.2265	460.8819	658.2769	692.6153	705.7643	774.0348	817.8713	827.4728	981.7513	1000.6944	1071.5401	1097.9553	1171.7736	1241.5546	1307.3842	1354.3144	1378.5887	1431.1574	1557.5985	1634.5662	3305.6626	3700.7462
N1N=CN2N=NN=C12	[nH]1ncn2nnnc12	
InChI=1S/C2H2N6/c1-3-4-2-5-6-7-8(1)2/h1H,(H,4,5,7)	InChI=1S/C2H2N6/c1-3-4-2-5-6-7-8(1)2/h1H,(H,4,5,7)
