11
gdb 132334	2.05908	1.83654	0.97073	0.786	58.1	-0.2499	-0.0587	0.1912	1046.0339	0.065076	-537.971732	-537.965017	-537.964073	-538.00331	24.923	
F	 0.0591544479	 0.0605133051	 0.0024797092	-0.041645
C	-0.0306765169	 1.373706035	 0.0109038072	 0.345435
C	-1.227692671	 1.9915463638	 0.0308653495	-0.324756
C	-1.2685161137	 3.4304605691	 0.0391514867	 0.413955
N	-2.2900143811	 4.1655949613	 0.0573684114	-0.524182
O	 0.0390606046	 4.0392575293	 0.0242038857	-0.240271
C	 1.1112872594	 3.2719258369	 0.0050562299	 0.421581
F	 2.1928463182	 3.9985121431	-0.0059110452	-0.022327
N	 1.1874840194	 2.0018553632	-0.0027682483	-0.416585
H	-2.1619295852	 1.4509931078	 0.0409536551	 0.149361
H	-2.0539199516	 5.1561360354	 0.0594163087	 0.239436
140.0903	189.9154	211.8829	353.0959	364.7726	478.0735	553.1136	605.0695	639.1265	671.7926	684.9364	762.2094	821.253	859.6809	866.9115	986.5259	1052.323	1092.4455	1207.271	1260.0435	1394.0723	1433.4362	1667.8332	1704.1159	1787.9713	3255.8376	3521.4285
FC1=CC(=N)OC(F)=N1	F[C@@H]1C=C([NH])OC(=N1)F	
InChI=1S/C4H2F2N2O/c5-2-1-3(7)9-4(6)8-2/h1,7H	InChI=1S/C4H3F2N2O/c5-2-1-3(7)9-4(6)8-2/h1-2,7H/t2-/m0/s1
