10
gdb 130563	3.7918	1.26283	0.94733	2.4584	62.04	-0.3224	-0.1417	0.1807	1083.1835	0.053357	-467.584609	-467.577442	-467.576497	-467.617231	24.416	
O	 0.0390868236	-0.0604487479	 0.0035233885	-0.255836
C	-0.0279166434	 1.14530838	 0.0075060226	 0.211497
C	 1.1807259083	 1.9824918707	 0.0010385874	 0.262545
N	 2.1488210902	 2.6136523246	-0.0042596488	-0.2931
C	-1.3127262748	 1.8619437878	 0.0190055921	 0.337032
C	-2.5937717806	 1.3946415665	 0.0270383363	-0.161952
N	-3.4090065039	 2.4965117144	 0.0361051329	-0.102285
N	-2.7243817028	 3.5554321874	 0.0342350156	 0.024854
O	-1.3492694549	 3.1962027657	 0.0232419998	-0.206313
H	-2.9700145217	 0.3865533008	 0.0268484936	 0.183558
63.0453	113.8728	183.7011	236.961	303.2844	448.6409	480.7373	636.5386	648.4333	690.8405	694.4354	792.1989	884.3646	970.4967	986.2385	1087.7835	1129.684	1268.8354	1363.7724	1428.6819	1589.953	1765.7765	2348.2464	3304.7041
O=C(C#N)C1=CN=NO1	O=C(C#N)c1cnno1	
InChI=1S/C4HN3O2/c5-1-3(8)4-2-6-7-9-4/h2H	InChI=1S/C4HN3O2/c5-1-3(8)4-2-6-7-9-4/h2H
