11
gdb 27522	2.14085	2.05546	1.04864	2.3888	56.27	-0.3008	-0.0533	0.2474	1006.3679	0.066368	-525.888126	-525.881169	-525.880225	-525.920349	25.081	
O	-0.1107999263	 1.2706876085	-0.0880653848	-0.354235
C	 0.0646225207	-0.0271792646	 0.0431818839	 0.529297
N	 1.2014011871	-0.5875163824	-0.15922059	-0.456838
C	 1.2834020564	-1.9502165201	 0.0035125794	 0.457367
O	 2.2462844162	-2.6296651554	-0.140262372	-0.30392
O	 0.0809390092	-2.6109060216	 0.3857139773	-0.251466
C	-1.0913755604	-1.9775918708	 0.5868283071	 0.49276
N	-2.1765859688	-2.4979884977	 0.9214028106	-0.520626
O	-1.0807442086	-0.6037019319	 0.4001054019	-0.184923
H	 0.7446425961	 1.6457398701	-0.3471957278	 0.336667
H	-2.0720250414	-3.5044060741	 1.0308206243	 0.255917
82.9314	105.2884	190.1051	367.0721	396.0587	530.0921	539.7852	595.9262	628.4631	673.4457	702.8274	751.5907	780.0501	853.3053	871.3906	941.8694	1024.5796	1091.3911	1178.229	1262.7396	1339.8408	1498.2493	1698.5433	1801.1187	1921.0226	3541.9495	3764.1929
OC1=NC(=O)OC(=N)O1	OC1=NC(=O)O[C]([NH])O1	
InChI=1S/C3H2N2O4/c4-1-8-2(6)5-3(7)9-1/h4H,(H,5,6,7)	InChI=1S/C3H2N2O4/c4-1-8-2(6)5-3(7)9-1/h4H,(H,5,6,7)
