11
gdb 130915	2.29534	1.6165	0.94851	4.0515	66.8	-0.2859	-0.1008	0.1851	1102.8118	0.063961	-451.467315	-451.459846	-451.458902	-451.499874	26.276	
O	-0.083843324	 0.0320856274	-0.0008553818	-0.224682
C	-0.0025622495	 1.2318747	 0.0075041689	 0.077534
C	 1.2795282163	 1.9820092827	-0.0006368556	 0.115165
N	 2.4572584975	 1.4091599306	-0.0181291812	-0.091602
O	 3.3590390506	 2.4176323873	-0.0201052861	-0.13167
N	 2.7639215895	 3.6470838448	-0.0038577212	-0.158089
C	 1.4715292813	 3.4045859799	 0.0085172005	 0.192822
C	 0.4899145727	 4.4202940796	 0.0272297412	 0.284054
C	-0.3730747865	 5.256913123	 0.0432302299	-0.393498
H	-0.8954245928	 1.8886612962	 0.0223298731	 0.107819
H	-1.1270488851	 6.0062564884	 0.0572370423	 0.222146
105.7326	117.3845	170.2632	226.1754	264.2432	415.3487	475.6245	576.5067	596.0483	649.689	660.6026	693.079	764.1247	806.0464	921.0415	947.4113	1036.7971	1077.2526	1213.9271	1367.7247	1447.2464	1475.0053	1566.2966	1820.6129	2249.7981	2936.2767	3495.2838
O=CC1=NON=C1C#C	O=Cc1nonc1C#C	
InChI=1S/C5H2N2O2/c1-2-4-5(3-8)7-9-6-4/h1,3H	InChI=1S/C5H2N2O2/c1-2-4-5(3-8)7-9-6-4/h1,3H
