11
gdb 131073	7.23514	0.86731	0.78077	2.4558	55.04	-0.2741	-0.0514	0.2227	1300.1161	0.06497	-525.850558	-525.843093	-525.842149	-525.883503	25.744	
O	 0.0681846403	-0.044369827	 0.0875289826	-0.218342
C	 0.0052938713	 1.1256278519	-0.0692599741	 0.175055
O	 1.1000076793	 1.9333468266	 0.2559126735	-0.235372
C	 0.9393087936	 3.26302239	 0.1901316966	 0.553915
N	-0.1687994327	 3.9075471062	 0.3256143841	-0.219788
O	 0.2059357989	 5.2716437431	 0.1707977286	-0.229634
C	 1.5592211109	 5.3818407836	-0.0310720621	 0.530845
O	 2.1628056699	 6.3997042851	-0.1808207404	-0.371382
N	 2.0184804042	 4.0652441877	-0.019052074	-0.451025
H	-0.8312638879	 1.712842378	-0.4699107322	 0.161365
H	 2.9764957022	 3.7855967049	-0.1452650825	 0.304363
58.8167	112.9268	159.3586	207.8069	366.6318	396.244	456.1251	481.9212	574.7607	692.6157	734.9112	771.9037	823.1559	939.7772	959.7686	1021.6775	1037.153	1063.1349	1199.9161	1284.8809	1395.0317	1525.8456	1669.0029	1902.1575	1924.7729	3075.7811	3682.5198
O=COC1=NOC(=O)N1	O=COc1noc(=O)[nH]1	
InChI=1S/C3H2N2O4/c6-1-8-2-4-3(7)9-5-2/h1H,(H,4,5,7)	InChI=1S/C3H2N2O4/c6-1-8-2-4-3(7)9-5-2/h1H,(H,4,5,7)
