11
gdb 23815	3.38578	2.36828	1.39353	5.0804	59.2	-0.2302	-0.0592	0.171	776.2412	0.072967	-434.825781	-434.819548	-434.818604	-434.856393	23.074	
F	 0.0104042487	 0.0111566918	 0.0033676727	-0.037928
C	-0.0118121984	 1.3320291837	 0.0106453164	 0.195178
C	-1.1754017816	 2.0028320197	 0.0295274129	-0.080771
N	-1.1243988146	 3.3795158168	 0.0361275062	-0.237211
N	 0.0170009862	 4.0931698508	 0.0247975987	-0.029377
N	 1.1255274506	 3.4902346165	 0.0069985044	-0.263599
C	 1.2435034964	 2.0622084873	-0.0020271834	 0.293649
N	 2.3775945959	 1.4789700597	-0.0200757588	-0.517874
H	-2.1487028657	 1.5316091352	 0.0398719328	 0.16037
H	-1.9566651189	 3.9459105237	 0.0500545231	 0.288721
H	 3.1117136714	 2.1910354848	-0.026022765	 0.228843
90.1843	302.1	312.4816	370.7259	449.0565	466.7832	536.5269	598.2822	621.5997	765.6663	782.0844	864.4149	904.1437	949.4101	979.4353	1053.2312	1198.0864	1271.892	1311.7431	1385.7735	1467.8764	1576.8826	1693.9769	1726.8911	3232.1124	3458.1343	3659.2835
FC1=CNN=NC1=N	Fc1c[nH]nnc1[NH]	
InChI=1S/C3H3FN4/c4-2-1-6-8-7-3(2)5/h1H,(H2,5,6,7)	InChI=1S/C3H8FN4/c4-2-1-6-8-7-3(2)5/h2-3,5-8H,1H2
