9
gdb 21749	5.62892	2.39947	1.68233	3.6125	49.65	-0.3037	-0.0861	0.2177	650.702	0.050979	-429.457388	-429.452638	-429.451693	-429.486266	17.962	
O	-0.0797521741	 1.3261929919	 0.0100272482	-0.202262
C	 1.2561620305	 1.724689977	-0.0006148621	 0.094821
N	 2.1643280613	 0.8106610113	-0.0142768151	-0.311733
C	 1.4064306099	-0.3572185752	-0.0133004015	 0.362965
N	 1.5339058605	-1.654468509	-0.02154346	-0.186837
O	 0.2222775521	-2.0980138379	-0.0113304023	-0.152355
N	-0.7251186505	-1.0639427024	 0.0032887537	-0.215542
C	 0.0398480774	-0.0217362966	 0.0016010874	 0.42648
H	 1.402157583	 2.7947931009	 0.0037512217	 0.184463
290.4655	359.0136	520.8207	590.1074	619.2372	733.9068	750.661	804.038	822.9781	870.4379	907.1431	909.707	1035.5406	1071.5491	1197.9339	1335.5097	1453.3664	1553.2757	1595.3348	1680.4096	3275.5558
O1C=NC2=NON=C12	o1cnc2nonc12	
InChI=1S/C3HN3O2/c1-4-2-3(7-1)6-8-5-2/h1H	InChI=1S/C3HN3O2/c1-4-2-3(7-1)6-8-5-2/h1H
