11
gdb 8972	5.61734	1.04096	0.88304	2.7855	59.93	-0.3027	-0.0645	0.2382	1174.1227	0.069738	-397.390335	-397.382375	-397.381431	-397.424012	26.517	
O	 0.0112778957	-0.0834515197	 0.0043294331	-0.343817
C	 0.0062447889	 1.1204357546	 0.0057533618	 0.311597
O	 1.1271407007	 1.8808894707	-0.0039855473	-0.223224
C	 2.3411270321	 1.1184000329	-0.0158950179	-0.207978
C	 3.4613575084	 2.0559722847	-0.0194112266	 0.273509
N	 4.3738273713	 2.7626297741	-0.022531137	-0.283874
C	-1.1722374891	 1.9499974442	 0.0174800629	 0.22971
C	-2.1854140366	 2.5947775016	 0.0275181068	-0.336675
H	 2.3919046755	 0.4690722211	 0.8639357391	 0.178818
H	 2.3797079036	 0.4773397043	-0.902425563	 0.178673
H	-3.0813196006	 3.1673774115	 0.0364473781	 0.223261
32.7913	102.5078	132.3185	204.5976	282.564	291.8834	375.4291	477.0618	568.787	621.7381	670.1154	709.6505	770.7793	900.8391	982.3086	1014.8009	1044.0892	1236.2694	1247.5672	1390.3185	1480.9743	1799.8074	2242.1692	2378.9987	3059.013	3099.7647	3494.454
O=C(OCC#N)C#C	O=C(OCC#N)C#C	
InChI=1S/C5H3NO2/c1-2-5(7)8-4-3-6/h1H,4H2	InChI=1S/C5H3NO2/c1-2-5(7)8-4-3-6/h1H,4H2
