11
gdb 132418	4.04718	1.20251	0.92706	1.1957	59.21	-0.2829	-0.1129	0.17	1101.8692	0.06631	-492.884675	-492.877889	-492.876945	-492.916651	23.699	
F	-0.0437799897	 0.0907900524	 0.0034409629	-0.031405
C	-0.0291286881	 1.3999839908	 0.0107221664	 0.370816
N	-1.2083918344	 1.9974780574	 0.0301626712	-0.319024
C	-1.1289775343	 3.3317386916	 0.0365305899	 0.254229
C	-2.4599289905	 4.0501065601	 0.0587413548	 0.124977
O	-2.5714778736	 5.2441654074	 0.0669151175	-0.214097
N	-0.0028812143	 4.0452883842	 0.0251953532	-0.253004
C	 1.1055206643	 3.3078980678	 0.0059176876	 0.084577
N	 1.1608706206	 1.973513275	-0.0023522073	-0.286777
H	-3.3204504383	 3.3519340257	 0.0666373922	 0.114438
H	 2.0556534883	 3.8354729777	-0.0040905784	 0.15527
82.5818	182.5189	202.2919	227.6247	402.0684	440.8607	521.0627	586.6954	670.7686	720.6525	841.0087	847.2001	991.9794	1005.3779	1018.4227	1048.6081	1222.9514	1304.2747	1327.0733	1385.0287	1431.143	1481.8636	1590.3095	1603.2939	1839.1082	2949.6585	3182.3903
FC1=NC(C=O)=NC=N1	Fc1nc(C=O)ncn1	
InChI=1S/C4H2FN3O/c5-4-7-2-6-3(1-9)8-4/h1-2H	InChI=1S/C4H2FN3O/c5-4-7-2-6-3(1-9)8-4/h1-2H
