11
gdb 9034	4.36595	0.92007	0.78627	3.3631	62.29	-0.2894	-0.0878	0.2016	1316.7787	0.069522	-397.363949	-397.355504	-397.35456	-397.398566	27.296	
O	-0.0848893371	 1.4389152925	 0.0065668531	-0.376526
C	 0.0385058305	 0.0329651053	 0.0015737689	-0.185881
C	 0.6859523335	-0.4565425961	-1.2396184485	 0.283358
N	 1.19488157	-0.8031666058	-2.2163884598	-0.30346
C	 0.740969466	-0.5006970666	 1.1739412889	 0.130155
C	 1.311452331	-0.9236351814	 2.1489588575	 0.029841
C	 2.0003064497	-1.4048035156	 3.3268144128	 0.027627
O	 2.0475646527	-2.5665694616	 3.6501263883	-0.210437
H	 0.8005109813	 1.8225044345	 0.0247419973	 0.305392
H	-0.9910682219	-0.3470343485	 0.0069636969	 0.185712
H	 2.4899123343	-0.6085983367	 3.9213521446	 0.114219
33.589	75.918	111.7544	199.256	215.9944	247.2743	337.0476	399.3263	475.2569	525.9609	611.9599	668.8146	820.0093	926.8758	1018.5576	1057.399	1139.3712	1264.653	1301.9222	1411.4344	1419.9567	1776.0239	2335.2172	2364.0527	2936.7	3045.4624	3796.7458
OC(C#N)C#CC=O	O[C@@H](C#N)C#CC=O	
InChI=1S/C5H3NO2/c6-4-5(8)2-1-3-7/h3,5,8H	InChI=1S/C5H3NO2/c6-4-5(8)2-1-3-7/h3,5,8H/t5-/m1/s1
