11
gdb 130610	3.71877	1.24574	0.93315	1.2119	68.55	-0.2786	-0.1077	0.1709	1111.3217	0.065898	-451.536752	-451.529772	-451.528828	-451.568603	25.179	
O	-0.0631391454	-0.0669437448	 0.0042134374	-0.335883
C	-0.0180167281	 1.1487880119	 0.0107620061	 0.380118
C	-1.243131773	 1.9843326924	 0.0308453525	-0.053392
N	-1.312068635	 3.2670563729	 0.0378624704	-0.028653
O	-0.1111241899	 3.9693286971	 0.0246192782	-0.265789
C	 1.0653554038	 3.3022233483	 0.0049778938	 0.331367
C	 1.1896643147	 1.9573683048	-0.0030299625	-0.34144
C	 2.1825239281	 4.1981625101	-0.0066847526	 0.27228
N	 3.0984997469	 4.9034776805	-0.0164247166	-0.293716
H	-2.2070979428	 1.4823240266	 0.0415725642	 0.171129
H	 2.1655144308	 1.4904974101	-0.019148821	 0.163978
128.0274	142.0401	153.4954	382.372	415.8226	425.9367	467.4734	514.9067	564.5789	683.8393	709.476	740.6791	905.5237	909.6916	921.2737	960.1759	994.2832	1163.3744	1241.3023	1305.6728	1369.3042	1623.175	1653.955	1771.2652	2359.9124	3185.9551	3232.1579
O=C1C=NOC(=C1)C#N	O=c1cnoc(c1)C#N	
InChI=1S/C5H2N2O2/c6-2-5-1-4(8)3-7-9-5/h1,3H	InChI=1S/C5H2N2O2/c6-2-5-1-4(8)3-7-9-5/h1,3H
