10
gdb 21842	8.20007	1.22942	1.08677	2.481	51.04	-0.2828	-0.0651	0.2177	960.4909	0.059377	-450.577136	-450.570709	-450.569765	-450.608628	21.795	
O	-0.0453756169	 0.0076183368	 0.1086019499	-0.236507
C	-0.0034866322	 1.1791134681	-0.0712532012	 0.164819
O	 1.0744683731	 1.9223774456	 0.3675002383	-0.222152
C	 1.0346227063	 3.2637638369	 0.1972501735	 0.331228
C	 2.0551632551	 4.111051332	-0.0952393992	-0.04518
O	 1.5595992895	 5.3481540765	-0.1005042531	-0.148639
N	 0.177268072	 5.2438525874	 0.1911100776	 0.013208
N	-0.0935208832	 4.0227586501	 0.3672415318	-0.180394
H	-0.7602724301	 1.7963265726	-0.5773532681	 0.133771
H	 3.1034864164	 3.9771918641	-0.2977785194	 0.189848
69.5885	126.4372	170.9336	378.576	449.8201	500.501	645.29	685.4508	718.5355	824.9004	838.8176	983.623	1030.6543	1046.3761	1086.936	1140.374	1295.1372	1336.164	1413.9378	1446.9886	1636.5201	1892.0613	3045.0943	3300.785
O=COC1=CON=N1	O=COc1conn1	
InChI=1S/C3H2N2O3/c6-2-7-3-1-8-5-4-3/h1-2H	InChI=1S/C3H2N2O3/c6-2-7-3-1-8-5-4-3/h1-2H
