10
gdb 130919	2.32344	0.86405	0.76841	3.3166	60.35	-0.2474	-0.1086	0.1387	1432.2319	0.045528	-504.72313	-504.71211	-504.711165	-504.764621	31.233	
O	-0.0733943699	-0.1864919073	-0.5526773	-0.244561
C	-0.2235449453	 0.9645711707	-0.2343642169	 0.112006
C	 0.8541796557	 1.8008738731	 0.330081083	-0.155965
N	 2.1630650231	 1.1860378263	 0.5038945853	 0.037551
O	 3.057954359	 1.8478302747	 0.9592221767	-0.22277
N	 4.3891450397	 4.5741335962	-1.2928048026	 0.006954
N	 3.3711221686	 4.2102208834	-1.097782835	-0.008507
C	 0.7076744532	 3.0796689366	 0.6899623146	 0.523608
O	 0.7332439684	 4.1723825888	 1.0462308982	-0.143427
H	-1.1960698525	 1.4854017675	-0.3444292734	 0.095111
12.9961	26.536	40.4859	53.5585	77.5835	116.9344	122.0909	180.2618	186.2477	286.4161	419.2218	550.7738	621.578	688.4601	759.6431	1016.236	1088.2137	1311.9154	1449.9401	1611.7854	1802.1948	2209.2338	2433.1305	2918.9199	12.9957	26.5362	40.4864	53.5589	77.5841	116.9345	122.0884	180.2616	186.2481	286.4161	419.2216	550.7739	621.5772	688.4595	759.6432	1016.2372	1088.2127	1311.9158	1449.9421	1611.7864	1802.1942	2209.2347	2433.1306	2918.9201
O=CC1=NON=NC1=O	O=CC(=N[O])[C][O].N#N	
InChI=1S/C3HN3O3/c7-1-2-3(8)4-6-9-5-2/h1H	InChI=1S/C3HNO3.N2/c5-1-3(2-6)4-7;1-2/h1H;
