11
gdb 129225	3.78506	1.31313	0.97491	3.3817	68.94	-0.2802	-0.1326	0.1477	1076.1744	0.067545	-443.881608	-443.874642	-443.873698	-443.913561	24.928	
N	-0.1284808385	 1.3413139725	 0.0084293597	-0.5384
C	 0.0267541529	 0.085296944	 0.0010716699	 0.4434
N	-1.1202488115	-0.7358912503	 0.0030376301	-0.19975
N	-1.1429603792	-2.0545163882	-0.0036422726	-0.011739
N	-0.0375513077	-2.6948633569	-0.0129327924	-0.239371
C	 1.1252980795	-1.916850099	-0.0152825739	 0.278981
N	 1.2252501437	-0.6306407383	-0.0091319277	-0.302854
C	 2.339590757	-2.6992429084	-0.0257230933	 0.313246
N	 3.3098838216	-3.3261517163	-0.0340805004	-0.296388
H	 0.780200725	 1.8021626723	 0.005900356	 0.24729
H	-2.0302568328	-0.2916993916	 0.0102580846	 0.305587
99.6801	135.4613	159.2341	350.5045	413.8989	452.3833	492.4512	574.9372	583.3563	705.6403	745.4604	752.0518	806.1166	862.3701	939.4788	994.1145	1096.9202	1151.7547	1254.3624	1306.6715	1399.0535	1523.9645	1618.9618	1754.7889	2366.4593	3517.5578	3591.4007
N=C1NN=NC(=N1)C#N	[NH]c1[nH]nnc(n1)C#N	
InChI=1S/C3H2N6/c4-1-2-6-3(5)8-9-7-2/h(H2,5,6,7,8)	InChI=1S/C3H7N6/c4-1-2-6-3(5)8-9-7-2/h2-3,5-9H
