11
gdb 123504	4.29865	1.84857	1.29268	3.409	65.98	-0.2788	-0.1252	0.1536	845.3654	0.06869	-443.855219	-443.849711	-443.848767	-443.885158	21.144	
C	-0.0178480015	 1.3342370586	 0.0100196805	-0.150589
C	 1.2594134535	 1.8594935311	 0.0002710569	 0.442998
N	 1.8399821826	 3.0729620277	 0.0010173579	-0.289515
C	 3.1445198819	 3.0349152973	-0.0124199668	 0.077577
N	 3.942338521	 1.9055270695	-0.0267582945	-0.148476
N	 3.4104311131	 0.7424746487	-0.0277817535	-0.041758
N	 2.065991493	 0.7211095233	-0.0142501738	 0.071764
N	 1.3365871259	-0.4048086357	-0.0122965608	-0.12518
N	 0.0805778539	-0.0156014249	 0.0020210817	-0.154207
H	-0.9672056779	 1.8424567942	 0.0221328316	 0.156213
H	 3.6973145246	 3.9672571199	-0.0130336892	 0.161172
217.6811	222.3884	421.6219	457.9429	589.4924	626.3356	658.5178	696.9178	766.4658	793.7202	857.1193	898.7076	949.7217	959.8335	1070.1087	1133.5222	1157.984	1222.0137	1241.7542	1322.2601	1342.4988	1411.1541	1470.2219	1549.2539	1613.1346	3214.1121	3286.7243
C1=C2N=CN=NN2N=N1	c1c2ncnnn2nn1	
InChI=1S/C3H2N6/c1-3-4-2-6-8-9(3)7-5-1/h1-2H	InChI=1S/C3H2N6/c1-3-4-2-6-8-9(3)7-5-1/h1-2H
