11
gdb 132819	2.40074	1.7856	1.02399	2.3612	56.23	-0.2681	-0.0351	0.233	991.8445	0.064748	-545.946086	-545.939474	-545.93853	-545.977385	24.654	
F	 0.0120087542	 0.0439893972	 0.0045888509	-0.049141
C	-0.0239079236	 1.368323283	 0.0110553212	 0.243064
N	-1.1966860033	 1.9494428284	 0.0293426535	-0.316862
C	-1.2271666275	 3.2881420904	 0.035911076	 0.007645
C	-0.0892157537	 4.0818260921	 0.0244136607	-0.262357
C	 1.14271977	 3.4377073252	 0.0050974383	 0.21485
F	 2.2750833953	 4.1248229002	-0.00680219	-0.047068
C	 1.1936243606	 2.0506643145	-0.0019551246	-0.017802
F	 2.3516830848	 1.4046763947	-0.0202862301	-0.036891
H	-2.2122562856	 3.7434230974	 0.0510877815	 0.133362
H	-0.1382485212	 5.1631526169	 0.0300221225	 0.131199
144.794	256.7834	268.098	317.7966	324.9553	489.4813	537.7432	565.7732	582.5982	636.072	725.1837	755.3117	843.3138	849.8602	970.2871	1069.5561	1094.3018	1260.0117	1310.2044	1329.3074	1354.3383	1500.316	1542.6081	1638.1649	1649.8663	3182.7116	3221.5829
FC1=NC=CC(F)=C1F	Fc1nccc(F)c1F	
InChI=1S/C5H2F3N/c6-3-1-2-9-5(8)4(3)7/h1-2H	InChI=1S/C5H2F3N/c6-3-1-2-9-5(8)4(3)7/h1-2H
