11
gdb 131906	4.57544	1.16097	0.92601	3.9319	60.67	-0.26	-0.105	0.155	1118.6306	0.065458	-525.751205	-525.744183	-525.743238	-525.783377	25.158	
O	 0.1027658747	 1.3077332714	-0.0708376775	-0.418437
C	 0.0654180421	-0.0284113196	-0.0483284173	 0.350194
C	-0.013281556	-0.8838726722	-1.1125098175	-0.126788
O	-0.023747477	-2.1538123948	-0.6015210949	-0.12968
C	 0.0483346028	-1.9761025586	 0.7161444172	 0.523849
N	 0.1042638998	-0.74659255	 1.121181824	-0.365461
N	 0.0565675649	-3.1648957579	 1.5458205803	 0.349913
O	-0.0012961705	-4.2384316086	 0.9630381162	-0.345198
O	 0.1205570026	-2.9831026224	 2.7507460204	-0.335881
H	 0.157562262	 1.6135537806	 0.8436392066	 0.32039
H	-0.0647932555	-0.7779348777	-2.1803202876	 0.1771
64.3382	170.3218	201.8842	350.2632	385.1033	394.3145	442.5607	563.5915	641.8525	686.0295	718.4107	741.8765	780.5261	844.3845	998.666	1031.7618	1129.4749	1176.016	1254.4498	1349.0444	1389.6777	1405.8514	1567.9271	1651.1519	1677.2133	3316.3944	3799.5958
OC1=COC(=N1)N(=O)=O	Oc1coc(n1)N(=O)=O	
InChI=1S/C3H2N2O4/c6-2-1-9-3(4-2)5(7)8/h1,6H	InChI=1S/C3H2N2O4/c6-2-1-9-3(4-2)5(7)8/h1,6H
