10
gdb 130584	2.02698	0.92836	0.66578	3.8078	60.8	-0.2923	-0.0954	0.1969	1511.5929	0.04774	-467.66848	-467.65775	-467.656806	-467.710202	30.834	
O	-0.0084150698	 0.0738860155	 0.5292496606	-0.15584
C	-0.7987035176	 0.8840970353	 0.3324694711	 0.5597
C	-1.7240023481	 1.8140674124	 0.1056248791	-0.514341
C	-1.4070076171	 3.215360113	 0.3336628335	 0.325172
O	-0.3467466995	 3.6578709731	 0.7232421053	-0.316603
N	 2.986406237	 3.1736961045	-0.6417796804	 0.003632
N	 2.1658261646	 2.4484656186	-0.7284684645	-0.005962
C	-2.534452874	 4.1265727087	 0.0430801314	 0.218917
N	-3.4079194653	 4.8499200798	-0.1807148743	-0.299567
H	-2.6958298902	 1.490279929	-0.2434967817	 0.184892
10.9377	23.3499	38.4887	46.0348	82.2097	85.909	117.2587	192.4528	306.1851	423.5899	551.4136	570.9734	593.4378	619.4774	758.7157	920.5424	1087.5793	1123.3975	1419.7975	1735.8867	2251.295	2343.7707	2433.1444	3219.5674	10.9338	23.3498	38.4885	46.0348	82.2095	85.9093	117.259	192.4527	306.1851	423.5899	551.4137	570.9733	593.4376	619.4775	758.7159	920.5425	1087.5793	1123.3977	1419.7976	1735.8862	2251.2948	2343.7713	2433.1444	3219.5673
O=C1C=C(ON=N1)C#N	[O][C][CH]C(=O)C#N.N#N	
InChI=1S/C4HN3O2/c5-2-3-1-4(8)6-7-9-3/h1H	InChI=1S/C4HNO2.N2/c5-3-4(7)1-2-6;1-2/h1H;
