10
gdb 133446	3.17678	1.51152	1.0242	3.6469	52.91	-0.2967	-0.0909	0.2057	996.1771	0.052228	-549.82174	-549.814766	-549.813822	-549.854092	24.741	
F	 0.115730873	 0.0431765189	-0.1971845751	-0.020282
C	-0.0565803318	 1.3262030796	-0.055352974	 0.440002
N	-1.1960481416	 1.7590386228	 0.2878875007	-0.212903
O	-1.2981822428	 3.1625880571	 0.4197839785	-0.242276
C	-0.2465988302	 4.0032123227	 0.1943576473	 0.425912
O	-0.3952310212	 5.1777839292	 0.3214815246	-0.262987
C	 1.0653564993	 3.3733615708	-0.2114330117	 0.266858
N	 2.0834881738	 4.0633682661	-0.4397431534	-0.438972
O	 1.0785304774	 1.9825754067	-0.3169190314	-0.213759
H	 2.8851941441	 3.486773686	-0.7017043854	 0.258407
67.9222	91.0132	319.5116	339.5033	386.9849	429.8561	479.477	491.0497	622.5348	673.9032	683.0037	782.3791	804.2536	929.1429	959.7874	1018.6309	1072.3142	1169.5259	1296.6763	1402.3877	1758.339	1779.2094	1879.1023	3488.7675
FC1=NOC(=O)C(=N)O1	FC1=NOC(=O)[C]([NH])O1	
InChI=1S/C3HFN2O3/c4-3-6-9-2(7)1(5)8-3/h5H	InChI=1S/C3HFN2O3/c4-3-6-9-2(7)1(5)8-3/h5H
