10
gdb 133453	2.55202	1.76449	1.04321	1.7096	55.76	-0.2827	-0.1006	0.182	967.8614	0.051943	-553.905429	-553.898715	-553.897771	-553.936975	24.697	
F	 0.0579662553	 0.1171072866	 0.2508225188	-0.041187
C	 0.0285144572	 1.423650535	 0.0631756614	 0.355133
N	-1.1215118193	 1.9720268867	 0.0058722511	-0.120926
O	-1.1704434385	 3.3337891537	-0.1893203085	-0.215604
N	-0.0326214249	 4.1048611169	-0.3218137183	-0.126306
C	 1.1029920488	 3.5210529525	-0.2591390102	 0.390752
F	 2.1631716599	 4.2815454017	-0.3885963865	-0.015018
C	 1.3216731959	 2.0915783933	-0.0573739293	 0.027786
N	 2.4839804362	 1.5688642628	-0.0039771126	-0.503808
H	 2.4110717695	 0.5593916208	 0.1427849641	 0.249178
90.5418	276.5481	302.6313	331.2236	341.8927	460.1564	463.6232	557.0594	558.7875	579.5587	704.0093	776.6407	869.931	887.7505	928.0823	1028.882	1036.5384	1263.715	1394.3962	1469.3638	1651.9432	1658.5134	1705.322	3463.4074
FC1=NON=C(F)C1=N	FC1=NON=C(F)[C]1[NH]	
InChI=1S/C3HF2N3O/c4-2-1(6)3(5)8-9-7-2/h6H	InChI=1S/C3HF2N3O/c4-2-1(6)3(5)8-9-7-2/h6H
