11
gdb 132723	6.07209	1.02196	0.87474	0.8343	66.21	-0.2944	-0.0818	0.2126	1155.2158	0.067678	-455.762223	-455.755636	-455.754692	-455.793697	23.814	
F	 0.0010183587	 0.0761868948	 0.0033458526	-0.03575
C	-0.0167752305	 1.3870492754	 0.0107511902	 0.379053
N	-1.2185727298	 1.9417956073	 0.0296379407	-0.296062
C	-1.2313745626	 3.2701980796	 0.0368685464	-0.027697
C	-0.0526224953	 4.0276558207	 0.0252251522	 0.082495
C	 1.1462567007	 3.3026449957	 0.0053987575	-0.027693
N	 1.1695200937	 1.9743878442	-0.0019702642	-0.296062
C	-0.0719478126	 5.4521467235	 0.0330646774	 0.217926
N	-0.0876444974	 6.6094114496	 0.0394301415	-0.31315
H	-2.2032307587	 3.7552077163	 0.0523738737	 0.158469
H	 2.1045849938	 3.8140015528	-0.0046428779	 0.15847
99.3657	151.5784	248.1264	420.8644	446.733	466.4076	505.7518	565.0224	590.4559	667.9443	737.8888	830.926	899.6929	989.8245	1005.0188	1053.4279	1246.0597	1257.8548	1307.2284	1385.1937	1408.541	1494.7753	1579.0306	1634.5282	2349.9653	3182.3937	3182.5094
FC1=NC=C(C=N1)C#N	Fc1ncc(cn1)C#N	
InChI=1S/C5H2FN3/c6-5-8-2-4(1-7)3-9-5/h2-3H	InChI=1S/C5H2FN3/c6-5-8-2-4(1-7)3-9-5/h2-3H
