9
gdb 23700	4.03153	1.60803	1.19677	2.664	49.14	-0.2974	-0.0925	0.2049	867.0009	0.04765	-474.686144	-474.679187	-474.678243	-474.719004	22.411	
F	-0.1870645757	 0.0145651595	-0.4257877995	-0.054149
C	 0.0234517063	 1.2150533293	 0.1006609743	 0.40933
N	-1.1594188967	 1.9320164231	 0.1186492399	-0.308205
C	-1.1451424948	 3.212106202	 0.061487362	 0.122893
N	-0.1012313341	 4.0790720703	-0.123009907	-0.37693
C	 1.1219622644	 4.0347102016	-0.105018479	 0.607079
O	 2.2661760275	 4.2083491586	-0.1273144242	-0.237156
O	 1.1029956451	 1.523096896	 0.517869462	-0.326982
H	-2.100627892	 3.7252409896	 0.1385884816	 0.164119
35.5681	101.0475	132.5411	246.1675	364.5621	486.7702	580.8638	616.2327	628.1586	765.2915	839.5272	894.1651	992.6589	1008.501	1251.0789	1443.4648	1528.5422	1655.0836	1826.8212	2346.2784	3172.66
FC1=NC=NC(=O)O1	FC(=O)[N]C=[N]=C=O	
InChI=1S/C3HFN2O2/c4-2-5-1-6-3(7)8-2/h1H	InChI=1S/C3HFN2O2/c4-3(8)6-1-5-2-7/h1H
