11
gdb 16794	3.78549	2.17535	1.49701	1.5395	51.73	-0.2802	-0.0563	0.224	758.6724	0.073236	-434.576995	-434.571052	-434.570108	-434.607222	22.121	
O	 0.0413371303	-0.0325351712	-0.0743334591	-0.333267
C	 0.0232727324	 1.1669492061	-0.0092016855	 0.454635
N	-1.112687358	 1.9686761831	 0.1162845873	-0.383879
C	-0.8818844352	 3.34167851	 0.0137541031	 0.454635
O	-1.7206170065	 4.2007337241	-0.0296388781	-0.333267
C	 0.6294277912	 3.4916866901	-0.0501081943	-0.096573
O	 1.2542522598	 2.9432699413	 1.117111889	-0.22843
C	 1.1942615807	 2.1346161696	-0.064431786	-0.096572
H	-2.0371123354	 1.5825451332	 0.2460251422	 0.280435
H	 1.0804474744	 4.3714262162	-0.4935891127	 0.141142
H	 2.1329125663	 1.8427723675	-0.5202798659	 0.141141
139.0464	210.3109	336.244	396.0768	499.3197	609.3587	622.0229	632.1059	760.1888	765.3109	859.4879	860.6923	910.8809	919.1233	1021.0653	1077.0911	1174.5766	1227.8285	1290.8305	1333.7971	1355.4028	1385.3688	1848.8512	1886.4346	3196.2433	3206.1056	3622.989
O=C1NC(=O)C2OC12	O=C1NC(=O)[C@H]2O[C@@H]12	
InChI=1S/C4H3NO3/c6-3-1-2(8-1)4(7)5-3/h1-2H,(H,5,6,7)	InChI=1S/C4H3NO3/c6-3-1-2(8-1)4(7)5-3/h1-2H,(H,5,6,7)/t1-,2+
