10
gdb 23637	4.23243	1.88487	1.3041	1.7071	51.68	-0.2729	-0.0746	0.1984	802.0569	0.06081	-458.622291	-458.616467	-458.615522	-458.65254	21.28	
F	 0.0595004181	 0.0581076299	 0.0023464328	-0.039322
C	-0.0224733245	 1.3710653646	 0.0107114787	 0.366642
C	-1.230375562	 1.9835739429	 0.0306679994	-0.41655
C	-1.2861002716	 3.4198215354	 0.0392150166	 0.454139
O	-2.224514027	 4.1555863374	 0.056348758	-0.318678
O	 0.0237330018	 4.0307791557	 0.0248229462	-0.201527
C	 1.1189085182	 3.2864923715	 0.0057005077	 0.160326
N	 1.183474232	 2.0016177979	-0.0023401962	-0.320291
H	-2.1603276517	 1.4333796417	 0.0404610707	 0.149092
H	 2.0249627667	 3.8858890031	-0.003328584	 0.16617
154.4579	193.5324	384.6791	439.621	465.9859	556.5923	579.0869	702.1191	726.691	760.1142	858.6497	876.0134	970.1558	985.1772	1101.7913	1244.7509	1266.2967	1369.721	1447.7581	1608.4133	1673.7623	1892.8829	3191.7369	3242.3396
FC1=CC(=O)OC=N1	Fc1cc(=O)ocn1	
InChI=1S/C4H2FNO2/c5-3-1-4(7)8-2-6-3/h1-2H	InChI=1S/C4H2FNO2/c5-3-1-4(7)8-2-6-3/h1-2H
