11
gdb 133413	3.16274	1.39204	0.9666	1.0548	56.88	-0.2533	-0.076	0.1774	1047.877	0.065524	-537.962095	-537.955338	-537.954394	-537.993591	25.189	
F	 0.0640103808	 0.014710129	 0.0026666651	-0.035438
C	-0.0397013551	 1.3325455897	 0.0110389598	 0.207344
C	-1.2261102293	 1.9735827477	 0.0302350948	-0.371173
C	-1.2638658667	 3.432420386	 0.038856397	 0.45553
O	-2.2565799585	 4.132841882	 0.0546723119	-0.381614
N	 0.0185105231	 4.0009822845	 0.0241435445	-0.280857
N	 1.2050552402	 3.3748223163	 0.0049863601	-0.234027
C	 1.1775575855	 2.092836048	-0.001121835	 0.239523
F	 2.3251104808	 1.4373101929	-0.0199463573	-0.042507
H	-2.1662504835	 1.43861263	 0.0397435448	 0.157804
H	 0.0679362226	 5.0108165839	 0.0283570142	 0.285413
118.747	202.9095	287.911	381.4478	386.6794	428.4952	463.3796	519.8491	609.4401	654.9616	726.1716	731.3835	734.7469	810.3999	906.9483	945.0222	1191.8228	1222.8009	1259.1423	1307.8447	1436.4381	1496.5237	1614.7271	1687.4083	1796.4067	3234.1746	3605.7245
FC1=CC(=O)NN=C1F	Fc1cc(=O)[nH]nc1F	
InChI=1S/C4H2F2N2O/c5-2-1-3(9)7-8-4(2)6/h1H,(H,7,9)	InChI=1S/C4H2F2N2O/c5-2-1-3(9)7-8-4(2)6/h1H,(H,7,9)
