11
gdb 23761	3.36447	2.47075	1.42458	2.387	55.93	-0.2499	-0.0499	0.2001	765.5522	0.073641	-438.740544	-438.734708	-438.733764	-438.770568	22.088	
O	 0.1080077451	 1.3502884748	 0.0989878556	-0.399434
C	 0.0742007938	 0.0099566695	 0.032087515	 0.294686
N	 0.0935824452	-0.5936569731	-1.1378077255	-0.32313
C	 0.0576516636	-1.9369281844	-1.1393740614	-0.028433
C	 0.0025199009	-2.660255694	 0.0371091764	-0.036288
N	-0.0172449564	-2.0421580986	 1.2328248138	-0.280869
C	 0.0177777993	-0.7432807996	 1.2257241347	 0.26492
F	-0.0003292549	-0.101573633	 2.3844525877	-0.048066
H	 0.1442622683	 1.6687141515	-0.814226263	 0.306589
H	 0.0739208298	-2.4277799113	-2.1070348363	 0.124705
H	-0.0266040044	-3.7444286618	 0.040311263	 0.125321
156.9234	300.3384	330.3931	470.9602	516.7016	551.1032	556.9757	599.4871	603.0517	788.199	801.2424	872.7148	915.2476	963.8776	1104.2981	1139.9358	1259.7069	1284.8751	1331.6022	1376.1	1486.3687	1519.2468	1611.1063	1641.4071	3179.4009	3198.8111	3764.5353
OC1=NC=CN=C1F	Oc1nccnc1F	
InChI=1S/C4H3FN2O/c5-3-4(8)7-2-1-6-3/h1-2H,(H,7,8)	InChI=1S/C4H3FN2O/c5-3-4(8)7-2-1-6-3/h1-2H,(H,7,8)
