11
gdb 132894	3.0943	1.43959	0.9825	2.8718	59.23	-0.239	-0.0811	0.158	1035.6311	0.064693	-537.944133	-537.93735	-537.936406	-537.975769	25.265	
F	 0.0618475603	 0.0502065145	-0.2998993239	-0.05835
C	-0.0320033271	 1.3447303811	-0.0342233409	 0.248871
C	-1.2183531645	 1.9359814056	 0.1539960792	-0.103192
O	-1.2813247144	 3.2739410836	 0.4266303998	-0.220162
C	-0.135219838	 4.0327555338	 0.5121287901	 0.296422
N	-0.1329631849	 5.272111757	 0.7611820806	-0.510201
C	 1.0995478441	 3.2598501936	 0.2844091827	 0.293566
F	 2.208388781	 3.9549178871	 0.3595233719	-0.018301
N	 1.1596465838	 2.0151345122	 0.030776296	-0.330614
H	-2.1845961838	 1.4569681272	 0.114227347	 0.161963
H	-1.0823478865	 5.6251171044	 0.8877264076	 0.239998
87.9086	226.6788	324.3782	348.1846	358.642	434.0008	471.1691	549.2142	590.645	635.8299	682.088	773.5772	813.1317	831.9755	871.495	1001.7797	1026.0539	1196.7417	1222.4206	1316.6346	1366.0509	1403.3238	1669.8996	1704.0654	1742.1912	3256.9698	3491.8626
FC1=COC(=N)C(F)=N1	FC1=COC(=C(F)[N]1)[NH]	
InChI=1S/C4H2F2N2O/c5-2-1-9-4(7)3(6)8-2/h1,7H	InChI=1S/C4H2F2N2O/c5-2-1-9-4(7)3(6)8-2/h1,7H
