11
gdb 20625	3.57019	1.99555	1.29033	2.658	60.63	-0.2946	-0.0898	0.2048	850.7046	0.071722	-393.572742	-393.565883	-393.564939	-393.604221	23.721	
C	-0.003388552	 1.5143605837	 0.1161446803	-0.503979
C	 0.0224820306	 0.033428527	-0.0086736339	 0.15998
C	-0.0061226764	-0.7824597754	-1.1040325841	 0.273242
O	 0.037523745	-2.062469317	-0.7006835717	-0.209208
N	 0.0955833564	-2.0202971754	 0.7115050015	 0.010334
N	 0.0855787667	-0.8163904634	 1.0762355972	-0.146756
C	-0.0698627906	-0.4916622017	-2.4844482925	 0.249874
N	-0.1221729006	-0.2162756946	-3.6074028781	-0.318695
H	 0.8938402085	 1.8730743025	 0.6294728659	 0.163901
H	-0.0539251396	 1.9836876308	-0.86826301	 0.157409
H	-0.8694201279	 1.8361459735	 0.7023609653	 0.163899
101.0409	141.0953	174.3251	276.0342	328.2861	495.3511	530.6471	593.5725	680.8054	688.6354	734.6668	739.4747	991.4193	1024.3216	1066.7792	1187.854	1223.9693	1373.8205	1420.852	1456.5617	1475.0373	1484.4458	1634.4665	2355.6377	3050.3725	3111.6242	3141.3917
CC1=C(ON=N1)C#N	Cc1c(onn1)C#N	
InChI=1S/C4H3N3O/c1-3-4(2-5)8-7-6-3/h1H3	InChI=1S/C4H3N3O/c1-3-4(2-5)8-7-6-3/h1H3
