10
gdb 21322	6.17146	1.64381	1.29806	3.4209	61.36	-0.2695	-0.1084	0.1611	826.9826	0.062434	-372.512005	-372.506124	-372.50518	-372.542237	20.79	
N	-0.0054324196	-1.1372143218	-0.0032020341	-0.301921
C	 0.0148766256	 0.0188000653	 0.0028669923	 0.269483
C	-0.0228707341	 1.4527091325	 0.010846743	 0.221549
C	-1.2435346479	 2.1422174406	 0.0309179848	-0.026806
N	-1.2605854525	 3.4652367688	 0.0380614629	-0.219647
C	-0.055135068	 4.0420649335	 0.0248117965	 0.121075
N	 1.1303525745	 3.4251924296	 0.0055200359	-0.16433
N	 1.1494422763	 2.1021576666	-0.0016433744	-0.218847
H	-2.192381426	 1.6128370081	 0.0409553246	 0.161709
H	-0.0181927382	 5.1270182567	 0.0298957684	 0.157735
137.8413	167.4417	326.2021	381.6119	506.3911	560.2481	598.409	647.7791	794.0734	827.4886	956.812	1018.4449	1061.4479	1097.6118	1135.7934	1214.5459	1274.2402	1401.8845	1435.7862	1537.4108	1592.8375	2357.419	3176.6978	3196.7919
N#CC1=CN=CN=N1	N#Cc1cncnn1	
InChI=1S/C4H2N4/c5-1-4-2-6-3-7-8-4/h2-3H	InChI=1S/C4H2N4/c5-1-4-2-6-3-7-8-4/h2-3H
