11
gdb 23731	5.78569	1.59929	1.25295	2.9085	57.73	-0.2368	-0.082	0.1548	847.2356	0.07244	-438.692145	-438.686006	-438.685062	-438.722977	22.584	
F	 0.0166164678	 0.0160400532	 0.0036214333	-0.065812
C	-0.0309446451	 1.3481784025	 0.0107461869	 0.148632
C	-1.19021748	 2.0275223357	 0.029224108	-0.018901
O	-1.2090449706	 3.3657510572	 0.0359476831	-0.187813
C	-0.0087811626	 4.0970169306	 0.0240590595	 0.442403
N	-0.1491651137	 5.3525186021	 0.0332870399	-0.516579
N	 1.1975158856	 3.399291789	 0.0046818268	-0.289097
C	 1.1827364549	 2.1082833439	-0.0015398604	-0.061426
H	-2.1761354523	 1.5791385483	 0.0398710091	 0.164326
H	 0.7752874156	 5.7790718553	 0.0237836814	 0.240187
H	 2.1351590104	 1.5781840221	-0.0168384778	 0.14408
58.0226	326.8874	344.5719	369.2619	469.2705	490.7235	494.4957	639.4956	757.8789	759.3985	815.1578	859.4294	916.9448	963.1148	987.1019	1026.3771	1219.5413	1271.1441	1290.8729	1359.5344	1442.9521	1592.664	1720.6789	1735.7302	3138.4362	3220.4232	3527.5368
FC1=COC(=N)N=C1	FC1=CN=C(OC1)[NH]	
InChI=1S/C4H3FN2O/c5-3-1-7-4(6)8-2-3/h1-2,6H	InChI=1S/C4H4FN2O/c5-3-1-7-4(6)8-2-3/h1,6H,2H2
