10
gdb 133419	2.49716	1.75159	1.02948	3.1703	53.97	-0.2778	-0.0886	0.1892	978.248	0.052041	-557.779711	-557.772982	-557.772038	-557.811269	24.54	
F	-0.0099973199	 0.041808918	 0.0047566941	-0.042754
C	-0.017894431	 1.3644802247	 0.0111873434	 0.118065
C	-1.1845283398	 2.0414743308	 0.0296551202	-0.007506
O	-1.2761014242	 3.3805077657	 0.0370773144	-0.214755
N	-0.1416430604	 4.1623230199	 0.0256074335	-0.105573
C	 0.9837433651	 3.5422464058	 0.0079147263	 0.247727
F	 2.0482978579	 4.3083230495	-0.0027200462	-0.018155
C	 1.2443374792	 2.0762957018	-0.0018053592	 0.184494
O	 2.3585150594	 1.5966768857	-0.0194960686	-0.339998
H	-2.1594265463	 1.569847838	 0.0402053622	 0.178455
98.4021	274.0186	287.3647	313.8855	331.3	452.3492	478.5442	543.3733	543.9714	596.6561	689.6943	782.9089	874.7406	906.6603	968.3336	1052.6828	1217.8221	1307.5987	1383.3833	1435.271	1627.1653	1674.7132	1778.4314	3224.0854
FC1=CON=C(F)C1=O	Fc1conc(F)c1=O	
InChI=1S/C4HF2NO2/c5-2-1-9-7-4(6)3(2)8/h1H	InChI=1S/C4HF2NO2/c5-2-1-9-7-4(6)3(2)8/h1H
