8
gdb 8720	4.83908	1.43999	1.10975	0.0001	51.78	-0.33	-0.175	0.155	920.3354	0.034807	-412.267004	-412.259551	-412.258607	-412.299757	23.797	
O	-0.0287813783	-0.0433601236	 0.0001431303	-0.214131
C	-0.0174502362	 1.1566411394	 0.0056286005	 0.221297
C	 1.2113872336	 1.9543139023	 0.0016172218	 0.267164
N	 2.1984135422	 2.5557853198	-0.0017597512	-0.274329
C	-1.3125209356	 1.9882839831	 0.0176460068	 0.221297
O	-1.301192406	 3.1882852385	 0.0231839164	-0.214131
C	-2.5413597235	 1.1906112423	 0.0216056493	 0.267164
N	-3.5283894763	 0.589145338	 0.024998116	-0.27433
44.2901	118.3497	173.3054	234.037	280.8722	289.2264	458.4278	485.9766	516.6629	625.3083	727.7064	834.1677	958.5052	1231.2192	1800.0146	1806.6372	2346.7702	2347.0887
O=C(C#N)C(=O)C#N	O=C(C#N)C(=O)C#N	
InChI=1S/C4N2O2/c5-1-3(7)4(8)2-6	InChI=1S/C4N2O2/c5-1-3(7)4(8)2-6
