11
gdb 25056	5.82722	1.05809	0.89549	1.3102	67.91	-0.2874	-0.1102	0.1772	1150.3603	0.066675	-451.603499	-451.596516	-451.595572	-451.635613	24.961	
O	-0.0501338301	-0.0376382758	 0.0039375948	-0.292405
C	 0.0526806484	 1.1440610812	 0.0084298658	 0.468436
O	-1.203633175	 1.8842161142	 0.0289989829	-0.19637
C	-1.2222445606	 3.1970292798	 0.0358464418	 0.070832
C	-0.0769064073	 3.9379906733	 0.024234292	 0.007896
C	 1.1474760375	 3.1840343125	 0.0040651301	 0.003085
N	 1.2098395449	 1.890906497	-0.0032625049	-0.307253
C	-0.0973802251	 5.3585301395	 0.0316550804	 0.212202
N	-0.0962311644	 6.516235644	 0.0374626915	-0.310856
H	-2.222398012	 3.6199505128	 0.051372458	 0.181472
H	 2.0928224336	 3.7251471615	-0.0058440624	 0.162959
58.4747	150.5489	194.1953	374.1121	435.8067	471.1695	484.9856	543.542	562.7552	620.1358	683.6288	719.21	799.3245	947.8831	972.0951	1016.2793	1039.0155	1244.5472	1297.1947	1380.1719	1430.774	1546.3103	1692.8728	1910.0399	2349.5653	3149.3474	3193.1489
O=C1OC=C(C=N1)C#N	O=c1occ(cn1)C#N	
InChI=1S/C5H2N2O2/c6-1-4-2-7-5(8)9-3-4/h2-3H	InChI=1S/C5H2N2O2/c6-1-4-2-7-5(8)9-3-4/h2-3H
