9
gdb 133407	2.41901	1.8915	1.06149	2.0874	50.79	-0.3033	-0.1232	0.1801	944.1092	0.039131	-573.824685	-573.817896	-573.816952	-573.856392	24.118	
F	 0.0293200902	 0.0434155853	 0.0030493682	-0.015469
C	-0.0402529807	 1.352147835	 0.0107828525	 0.277995
C	-1.211331378	 2.0204870012	 0.030597348	-0.041472
F	-2.3750963108	 1.4177883146	 0.0436778289	-0.000766
C	-1.1931432327	 3.4776970026	 0.0379593905	 0.422317
O	-2.1391808089	 4.2060137742	 0.0549858165	-0.309392
O	 0.0966752667	 4.0053033553	 0.0227849137	-0.25591
N	 1.2774776416	 3.2262127287	 0.0022801118	 0.081789
N	 1.1743615726	 1.989783663	-0.0027512601	-0.159093
107.8551	168.5561	267.1907	315.1427	333.0001	475.5432	513.4785	545.1677	550.9513	674.1006	691.1813	757.6256	793.9798	906.0997	1032.1187	1162.3096	1319.6097	1400.4187	1570.2412	1721.2804	1870.6417
FC1=C(F)C(=O)ON=N1	FC1=N[N]OC(=O)[C]1F	
InChI=1S/C3F2N2O2/c4-1-2(5)6-7-9-3(1)8	InChI=1S/C3F2N2O2/c4-1-2(5)6-7-9-3(1)8
