10
gdb 131998	4.36478	1.33301	1.09079	3.0929	57.16	-0.2942	-0.1349	0.1593	986.8345	0.05342	-500.792147	-500.785388	-500.784444	-500.824628	22.913	
O	-0.0159216559	 0.2140712038	-0.6776134807	-0.3206
N	-0.0251597412	 1.2272470893	-0.0064091537	 0.418685
O	 0.8873554578	 1.7128522917	 0.6340255951	-0.322136
C	-1.3204486352	 1.9738863467	 0.0386879899	 0.496761
N	-1.2516295562	 3.2762114339	-0.1261995078	-0.223097
C	-2.4586893927	 3.8344257201	-0.1001668101	 0.125574
N	-3.6045171254	 3.1811841105	 0.1303212714	-0.145083
N	-3.5529548569	 1.878633534	 0.3261664423	-0.025882
N	-2.3958463244	 1.2330426641	 0.2505463332	-0.180945
H	-2.5335026399	 4.9046058959	-0.2666149297	 0.176723
39.5206	119.7072	235.6565	309.4768	354.1329	377.7163	595.2332	686.5039	752.2308	762.1102	866.0503	883.0214	953.1811	1006.0724	1022.5048	1152.4364	1247.1608	1290.2984	1400.6958	1414.7121	1517.1795	1584.0735	1679.8896	3199.1812
O=N(=O)C1=NC=NN=N1	O=N(=O)c1ncnnn1	
InChI=1S/C2HN5O2/c8-7(9)2-3-1-4-6-5-2/h1H	InChI=1S/C2HN5O2/c8-7(9)2-3-1-4-6-5-2/h1H
