11
gdb 21493	5.37728	1.80158	1.35087	3.2496	54.16	-0.2773	-0.0818	0.1956	810.2338	0.073172	-423.029459	-423.022884	-423.02194	-423.060564	23.398	
N	-0.0738041629	 1.331149255	 0.1296146395	-0.537934
C	 0.1105037117	-0.0110341321	 0.0171203751	 0.499675
N	 1.2257558325	-0.5979562933	-0.0521382834	-0.51677
N	-1.1609591624	-0.7191828986	 0.0255458489	 0.078621
N	-2.3552922289	-0.1372694531	 0.0102285047	-0.115451
N	-3.2087450366	-1.1083857891	 0.0003274016	-0.070658
N	-2.5355170527	-2.2826476157	 0.0101199395	-0.067213
N	-1.2654814317	-2.040937007	 0.0239730431	-0.103827
H	 0.7433470198	 1.8944890305	-0.0383400309	 0.28349
H	-0.9768149803	 1.7248106066	-0.0767099193	 0.290794
H	 1.1270963314	-1.6091901033	-0.0770901988	 0.259273
74.5945	182.2952	234.1888	341.9979	417.0676	449.7479	508.2645	651.5253	682.5088	734.2053	758.9308	831.3341	952.8021	1096.7352	1106.3303	1114.5754	1139.5854	1176.5181	1257.9484	1312.7498	1386.167	1413.8189	1610.3627	1794.8066	3550.5893	3606.8822	3732.2938
NC(=N)N1N=NN=N1	NC(=N)n1nnnn1	
InChI=1S/CH3N7/c2-1(3)8-6-4-5-7-8/h(H3,2,3)	InChI=1S/CH3N7/c2-1(3)8-6-4-5-7-8/h(H3,2,3)
