11
gdb 132221	1.9786	1.81029	0.94535	2.4391	56.07	-0.2526	-0.0416	0.211	1065.3996	0.064589	-541.79255	-541.785831	-541.784887	-541.824096	24.978	
F	 0.1555880509	 0.0932983999	 0.0015429159	-0.026017
C	-0.0392242226	 1.3866097798	 0.0109069591	 0.420426
C	-1.2271008693	 1.9959588768	 0.030581097	-0.465552
C	-1.2959014252	 3.4664518304	 0.0391811733	 0.42697
O	-2.3441682075	 4.0873172882	 0.0567588829	-0.368199
C	 0.0266078272	 4.1128906829	 0.0239702494	-0.465551
C	 1.1318727937	 3.3640455986	 0.0047381375	 0.420425
F	 2.3595836987	 3.8148276566	-0.0100900038	-0.02602
O	 1.154349635	 2.0152081966	-0.002471801	-0.209227
H	-2.1385501523	 1.4151007763	 0.0402566748	 0.146373
H	 0.0978842514	 5.1913752741	 0.0284574949	 0.146372
160.5552	192.5001	213.5022	337.99	371.5485	498.3045	503.4359	606.1136	615.9039	637.1102	670.4289	719.4791	859.6387	874.1092	927.1945	967.736	1046.1462	1196.4922	1234.5244	1264.8663	1385.9365	1386.6389	1685.4229	1751.5425	1760.6357	3241.5715	3241.9141
FC1=CC(=O)C=C(F)O1	Fc1cc(=O)cc(F)o1	
InChI=1S/C5H2F2O2/c6-4-1-3(8)2-5(7)9-4/h1-2H	InChI=1S/C5H2F2O2/c6-4-1-3(8)2-5(7)9-4/h1-2H
