11
gdb 130592	3.56827	1.3435	0.97602	4.8347	75.55	-0.2424	-0.1026	0.1399	1066.822	0.065373	-451.557892	-451.550661	-451.549717	-451.590015	25.853	
O	-0.2605759163	-0.1511045623	 0.007985067	-0.286301
C	-0.1454062113	 1.0467771363	 0.0118948	 0.306464
C	-1.1640469563	 2.1037739469	 0.0305060176	-0.221533
C	-0.5721504905	 3.3213938655	 0.027601455	-0.151809
C	 0.8738820129	 3.2174868406	 0.0077459085	 0.22143
C	 1.2558878395	 1.7878787679	-0.0045717876	 0.233921
O	 2.3399733273	 1.2751387835	-0.0217304645	-0.289304
N	 2.5485059369	 4.9797859999	-0.0061203522	-0.204069
N	 1.7328089645	 4.1937101746	 0.0006371412	 0.108939
H	-2.226560397	 1.9111293863	 0.0445236687	 0.137713
H	-1.0850897597	 4.2750989207	 0.0391485362	 0.14455
91.836	136.9601	191.8453	306.6138	318.1372	450.9487	491.7072	514.2172	573.5884	611.164	680.6507	722.5204	747.7348	847.1874	939.5821	974.7722	1055.9653	1133.5487	1208.5323	1333.9533	1445.71	1573.3688	1817.5682	1843.3887	2217.1556	3215.0358	3251.6131
O=C1C=CC2=C1ON=N2	O=C1[CH]C=C(C1=O)[N][N]	
InChI=1S/C5H2N2O2/c8-4-2-1-3-5(4)9-7-6-3/h1-2H	InChI=1S/C5H2N2O2/c6-7-3-1-2-4(8)5(3)9/h1-2H
