11
gdb 130728	3.83359	1.30594	0.9741	2.032	70.19	-0.2688	-0.1162	0.1526	1082.289	0.065825	-447.683838	-447.676712	-447.675768	-447.71587	25.786	
O	-0.056435491	-0.0712828458	 0.0041204573	-0.347336
C	 0.0242646831	 1.1288649787	 0.0087225379	 0.455028
N	-1.1458488368	 1.9270613998	 0.0290207584	-0.235391
N	-1.2078652307	 3.2530109369	 0.0362400826	-0.026663
N	-0.1170921487	 3.9105169794	 0.0240291187	-0.226846
C	 1.0733265188	 3.1701236595	 0.0037150762	 0.206745
N	 1.1926272315	 1.874316716	-0.004162439	-0.326128
C	 2.2484313884	 3.9793087977	-0.0089411969	 0.292758
C	 3.2322761852	 4.669866394	-0.0194778193	-0.31144
H	-2.0444570178	 1.4597915187	 0.039440832	 0.297505
H	 4.1064021781	 5.2749985551	-0.0288782379	 0.221768
105.6572	131.981	148.9896	318.5089	440.7108	448.2288	498.7177	564.8887	595.414	668.1937	699.5552	727.3988	743.1689	774.0873	828.7917	952.2816	993.8898	1097.1387	1194.572	1292.6773	1374.7261	1527.6116	1593.6416	1848.5508	2242.1841	3495.5871	3586.88
O=C1NN=NC(=N1)C#C	O=c1[nH]nnc(n1)C#C	
InChI=1S/C4H2N4O/c1-2-3-5-4(9)7-8-6-3/h1H,(H,5,6,7,9)	InChI=1S/C4H2N4O/c1-2-3-5-4(9)7-8-6-3/h1H,(H,5,6,7,9)
