11
gdb 24932	5.42292	1.42378	1.1277	3.1724	58.64	-0.226	-0.0238	0.2021	951.6475	0.067228	-488.674387	-488.668189	-488.667245	-488.705364	23.191	
N	-0.0750223535	 1.2423345603	 0.0100204477	-0.54285
C	-0.0200495694	-0.0029293325	 0.0029568546	 0.475187
O	 1.1705023964	-0.7910836339	-0.0080978016	-0.268055
C	 0.6798931228	-2.0524441907	-0.0123028999	 0.349624
C	-0.6445338685	-2.0942775764	-0.0052142288	 0.279925
O	-1.1410678228	-0.8081865405	 0.004585841	-0.227094
N	-1.0956743539	-3.3809434247	-0.0098634234	-0.33409
C	 0.0205258648	-4.0562853123	-0.0188886507	 0.035861
O	 1.1870739689	-3.2908626316	-0.0220332076	-0.193674
H	 0.8487253118	 1.6645794796	 0.0071892105	 0.253328
H	 0.1661335135	-5.1223105573	-0.0251940519	 0.171839
83.2817	205.5692	342.162	350.3627	570.8767	592.0984	627.7733	709.093	710.7122	738.65	771.1098	774.0305	790.584	866.0164	927.772	947.9734	1022.1629	1122.1607	1215.7353	1305.5259	1413.9479	1480.0899	1491.8827	1740.8978	1834.4448	3310.3674	3564.3837
N=C1OC2=C(O1)N=CO2	[NH][C@@H]1Oc2c(O1)nco2	
InChI=1S/C4H2N2O3/c5-4-8-2-3(9-4)7-1-6-2/h1,5H	InChI=1S/C4H3N2O3/c5-4-8-2-3(9-4)7-1-6-2/h1,4-5H/t4-/m0/s1
