11
gdb 132475	3.25617	1.40783	0.98288	2.4848	59.22	-0.2416	-0.0723	0.1693	1031.1614	0.064726	-537.947339	-537.940554	-537.93961	-537.978976	25.188	
F	 0.0649534166	 0.0505350789	 0.0465768986	-0.028404
C	-0.0912125678	 1.347460757	-0.0487415507	 0.356261
C	-1.2275269191	 2.0134551578	 0.1933499004	-0.257757
N	-1.254954735	 3.3943847076	 0.053650358	-0.279595
C	-0.1877736714	 3.9797110566	-0.302810055	 0.29445
F	-0.174181548	 5.288990237	-0.4465167999	-0.032785
C	 1.0998043384	 3.3260653786	-0.5880259192	 0.286796
N	 2.1470991735	 3.9303772653	-0.9411806853	-0.500153
O	 1.0510275124	 1.9390915057	-0.4266392386	-0.229383
H	-2.1316750617	 1.5069259289	 0.4965301575	 0.146406
H	 2.924844842	 3.2862173165	-1.0868509057	 0.244163
101.8261	165.7383	322.4513	357.1493	417.5315	428.5532	484.5968	508.1857	608.1653	652.8378	724.3123	764.1421	787.3642	829.4401	869.5174	985.0943	1055.986	1179.5026	1239.409	1296.4746	1352.0231	1407.6775	1662.7438	1709.1711	1760.2031	3242.5246	3498.5975
FC1=CN=C(F)C(=N)O1	FC1=C[N]C(=C([NH])O1)F	
InChI=1S/C4H2F2N2O/c5-2-1-8-3(6)4(7)9-2/h1,7H	InChI=1S/C4H2F2N2O/c5-2-1-8-3(6)4(7)9-2/h1,7H
