11
gdb 21496	5.40626	1.62746	1.2509	2.8216	54.55	-0.2819	-0.0754	0.2065	860.0396	0.072198	-430.726572	-430.719736	-430.718792	-430.758	24.135	
N	-0.0936041675	 1.3305707117	-0.0051685051	-0.535304
C	 0.0583785162	-0.0175453852	-0.0100525088	 0.330222
O	 1.1244032482	-0.5999868984	-0.0220892229	-0.344235
C	-1.2201290883	-0.7851422252	 0.0013562782	 0.333186
C	-1.4379577985	-2.1277551451	 0.0006837877	-0.169278
N	-2.7995908505	-2.3056562084	 0.0141677627	-0.105308
N	-3.4009810244	-1.2046771692	 0.0230956081	 0.000039
O	-2.3987847629	-0.1632427053	 0.014962776	-0.238779
H	 0.7325247107	 1.9055807841	-0.0109799481	 0.276059
H	-1.0023639684	 1.7614727721	 0.0065633904	 0.282538
H	-0.7391592747	-2.9449795511	-0.0083871382	 0.17086
76.3205	183.0216	192.2281	256.2316	397.8111	470.5487	550.0317	610.4548	659.515	664.8876	695.8282	793.8765	872.5742	981.2173	1029.4571	1094.9709	1112.8843	1199.9499	1347.6836	1368.817	1457.5662	1598.4279	1623.7807	1797.9067	3310.7618	3603.674	3740.8157
NC(=O)C1=CN=NO1	NC(=O)c1cnno1	
InChI=1S/C3H3N3O2/c4-3(7)2-1-5-6-8-2/h1H,(H2,4,7)	InChI=1S/C3H3N3O2/c4-3(7)2-1-5-6-8-2/h1H,(H2,4,7)
