10
gdb 21444	3.34335	2.57156	1.45355	0.5198	55.15	-0.3006	-0.0777	0.2229	750.1143	0.058452	-446.672749	-446.666195	-446.665251	-446.704661	22.92	
N	-0.0014235833	 1.2392300156	 0.4338348291	-0.437395
C	-0.0477882953	 0.0545076216	 0.0219206572	 0.364138
O	 1.0838938386	-0.5598734191	-0.4936016613	-0.26282
N	 1.0700647777	-1.8825946172	-0.9640794737	 0.083022
N	 0.0522747957	-2.5627471598	-0.9418064144	 0.083021
O	-1.1604593028	-2.0597125308	-0.4444484233	-0.26282
C	-1.2798129444	-0.7689757399	 0.0491961412	 0.364138
N	-2.3791334947	-0.3502170392	 0.4868326352	-0.437395
H	 0.937464518	 1.6297299655	 0.3282337441	 0.253055
H	-3.1016780294	-1.0701715867	 0.4179304159	 0.253055
53.5647	60.4146	346.542	413.2094	443.4828	530.535	541.1958	572.0872	685.0006	755.2281	839.4478	880.5163	899.6479	933.8449	966.0064	1002.6394	1079.6317	1223.7006	1333.5541	1599.0477	1753.5955	1788.276	3477.4572	3478.7424
N=C1ON=NOC1=N	[NH]C1=C(ON=NO1)[NH]	
InChI=1S/C2H2N4O2/c3-1-2(4)8-6-5-7-1/h3-4H	InChI=1S/C2H2N4O2/c3-1-2(4)8-6-5-7-1/h3-4H
