9
gdb 132408	1.9671	1.96651	0.9834	0.0003	46.72	-0.3272	-0.0625	0.2647	989.795	0.042187	-578.086781	-578.08072	-578.079775	-578.11785	21.768	
F	 0.0004856574	 0.0996181701	 0.0035877902	-0.018876
C	-0.0169267983	 1.4035927068	 0.0107184826	 0.379506
N	-1.2119637025	 1.9698559182	 0.0301421619	-0.360617
C	-1.1406631599	 3.2904984801	 0.0360004738	 0.379323
F	-2.278526674	 3.9272118764	 0.0551120114	-0.018798
N	-0.0528295403	 4.0424609357	 0.024922506	-0.36037
C	 1.05506494	 3.3204501128	 0.0058675051	 0.379359
F	 2.1751836803	 3.9881005819	-0.0061747174	-0.018786
N	 1.1623756873	 2.0022173178	-0.0024946736	-0.360741
209.9045	210.4312	220.6253	384.2182	384.4198	580.4198	580.5749	650.4176	672.8525	767.5524	767.7671	846.5934	1000.5431	1116.1293	1116.2482	1285.255	1462.2521	1463.2152	1549.1108	1624.5733	1624.9686
FC1=NC(F)=NC(F)=N1	Fc1nc(F)nc(F)n1	
InChI=1S/C3F3N3/c4-1-7-2(5)9-3(6)8-1	InChI=1S/C3F3N3/c4-1-7-2(5)9-3(6)8-1
