11
gdb 21346	6.53947	1.36906	1.19367	3.762	55.82	-0.3014	-0.039	0.2624	911.2648	0.073556	-389.740401	-389.733867	-389.732923	-389.772769	21.939	
N	-0.3110474014	-0.8352037353	-0.9397054819	-0.277434
C	-0.124552872	 0.124053694	-0.3255600086	 0.271454
C	 0.0912950596	 1.3568635279	 0.4335049412	-0.269685
N	 1.38235871	 1.9590997143	 0.1450605092	 0.016821
C	 2.0380179956	 2.1753264745	-1.0122407973	 0.077311
N	 3.1552452829	 2.8140222921	-0.7514273559	-0.21181
N	 3.1714181604	 2.9914494639	 0.598644803	-0.079424
N	 2.1226880151	 2.4871251475	 1.1492988185	-0.112484
H	-0.717939393	 2.0620016417	 0.2134615211	 0.191923
H	 0.0740551174	 1.1494819129	 1.5064903231	 0.206326
H	 1.6882671255	 1.8525310366	-1.9792577125	 0.187002
23.	112.7072	239.4903	332.7991	366.9636	487.6328	658.6677	733.3881	771.8005	872.3659	948.8916	973.1269	983.7983	1037.3475	1115.1107	1156.7995	1201.7986	1289.0924	1326.1631	1377.8758	1452.626	1476.9382	1511.447	2376.813	3056.3401	3116.7769	3287.5645
N#CCN1C=NN=N1	N#CCn1cnnn1	
InChI=1S/C3H3N5/c4-1-2-8-3-5-6-7-8/h3H,2H2	InChI=1S/C3H3N5/c4-1-2-8-3-5-6-7-8/h3H,2H2
