10
gdb 21433	7.1345	1.43748	1.19642	2.4823	59.63	-0.2595	-0.0665	0.193	899.475	0.059464	-413.403604	-413.397192	-413.396248	-413.434307	23.325	
N	-0.2002265366	 1.2754650122	 0.0115821146	-0.577966
C	-0.028757452	 0.0376876885	 0.0034783859	 0.48825
O	 1.1349270798	-0.6891751742	-0.0068399676	-0.231306
N	 0.819716572	-2.064389395	-0.013136457	-0.174878
C	-0.4676557779	-2.0919391459	-0.0063594675	 0.290126
O	-1.0617620029	-0.8686454741	 0.0037875011	-0.197699
C	-1.2673019915	-3.2512673576	-0.0088579746	 0.261873
C	-1.9599324158	-4.2324988487	-0.0108903759	-0.333723
H	 0.6869609347	 1.7718461365	 0.0097807565	 0.250421
H	-2.5692305997	-5.1039328617	-0.0127228455	 0.224901
128.6153	148.8203	233.9378	414.826	433.9429	563.0254	580.5142	659.6365	700.8678	713.5173	733.6929	765.8546	782.6166	914.6192	929.6829	992.8489	1043.7445	1248.4257	1350.6697	1634.5232	1823.4837	2257.3274	3494.8933	3551.5168
N=C1ON=C(O1)C#C	[NH][C@H]1ON=C(O1)C#C	
InChI=1S/C4H2N2O2/c1-2-3-6-8-4(5)7-3/h1,5H	InChI=1S/C4H3N2O2/c1-2-3-6-8-4(5)7-3/h1,4-5H/t4-/m1/s1
