11
gdb 23939	9.6079	0.69935	0.6519	5.4772	86.16	-0.2623	-0.0886	0.1737	1550.5251	0.06731	-414.419778	-414.412691	-414.411746	-414.452191	24.874	
N	 0.1290631236	-3.6823572147	-0.0193825334	-0.323443
C	 0.0711707286	-2.5216268938	-0.0120744497	 0.167433
C	 0.0070464127	-1.1603166414	-0.0036060173	 0.395597
C	-0.0493546735	 0.0481960886	 0.0037276708	-0.089141
C	-0.1156525834	 1.4515136419	 0.0122855235	 0.134041
N	-1.177679825	 2.2089588447	 0.0307726424	-0.29097
C	-0.6827718893	 3.4948383414	 0.031114979	-0.118017
C	 0.6762768004	 3.4495492878	 0.0125286951	-0.028358
O	 1.057574672	 2.1485367104	 0.0002586489	-0.153697
H	-1.3325834526	 4.3549224582	 0.044592131	 0.141996
H	 1.4634656564	 4.1837774269	 0.0059197998	 0.164559
77.6536	86.1897	224.2631	235.2075	441.9399	454.3043	511.361	583.7013	586.6619	625.6242	750.1049	791.7314	880.5678	921.8355	939.7141	1019.4817	1121.4976	1147.0905	1164.8019	1283.0258	1389.9053	1511.2362	1575.7001	2265.9006	2383.6657	3270.1614	3302.2627
N#CC#CC1=NC=CO1	N#CC#Cc1ncco1	
InChI=1S/C6H2N2O/c7-3-1-2-6-8-4-5-9-6/h4-5H	InChI=1S/C6H2N2O/c7-3-1-2-6-8-4-5-9-6/h4-5H
