10
gdb 23811	3.42718	2.36434	1.39912	0.8728	52.55	-0.2734	-0.0855	0.188	758.3389	0.061256	-454.737069	-454.731217	-454.730272	-454.767265	21.377	
F	-0.023553778	 0.0221416802	 0.0043559475	-0.030805
C	-0.0290696607	 1.338921777	 0.0108732118	 0.141866
C	-1.1757666984	 2.0579520354	 0.0293677089	-0.070185
N	-1.2063241467	 3.4361474874	 0.0365012091	-0.199404
N	-0.1145194776	 4.0899706403	 0.0254340009	-0.029594
N	 1.0414810386	 3.4028219637	 0.0069725375	-0.273995
C	 1.2588476812	 2.0134516128	-0.0026544014	 0.376836
O	 2.3669096144	 1.5275058581	-0.0195171478	-0.362141
H	-2.1433664343	 1.5695445119	 0.0396173043	 0.156369
H	 1.8674977515	 3.9901247431	-0.0009532307	 0.291054
145.4269	265.3676	294.5194	426.9397	457.7998	566.4569	599.4597	633.4547	761.1782	764.3749	778.6759	951.3107	957.0111	1067.3917	1156.8419	1185.9894	1302.6735	1349.3212	1441.5085	1528.3487	1645.873	1820.4417	3207.4281	3580.3689
FC1=CN=NNC1=O	Fc1cnn[nH]c1=O	
InChI=1S/C3H2FN3O/c4-2-1-5-7-6-3(2)8/h1H,(H,5,6,8)	InChI=1S/C3H2FN3O/c4-2-1-5-7-6-3(2)8/h1H,(H,5,6,8)
