11
gdb 23722	6.01545	1.56246	1.2403	1.561	55.02	-0.2535	-0.0544	0.1991	849.1874	0.073761	-438.741151	-438.735329	-438.734384	-438.771199	22.026	
O	 0.0884926797	 1.3098471577	 0.1140462402	-0.388944
C	 0.0675101007	-0.0291238912	 0.0594319211	 0.461651
N	 0.0883022148	-0.5894618108	-1.1535218965	-0.334563
C	 0.0670713876	-1.9213432479	-1.1888162084	-0.092905
C	 0.0257686577	-2.6663147877	-0.0215821689	 0.207711
F	 0.0045194801	-3.9992340556	-0.0569957979	-0.070949
C	 0.0071977066	-1.9819945243	 1.1861415204	-0.088841
N	 0.0280248516	-0.6526964745	 1.2359053169	-0.276591
H	 0.1163927314	 1.6207271882	-0.8005018991	 0.308611
H	 0.0831148793	-2.4069709465	-2.1610712744	 0.136867
H	-0.0251570193	-2.5242488175	 2.1280442068	 0.137954
139.0782	348.0883	392.5123	437.5864	474.3846	507.5884	527.6979	563.5734	659.8269	795.4475	823.5511	900.838	962.9141	986.3869	1045.1477	1174.8169	1259.4946	1291.0609	1346.9126	1391.9421	1440.9849	1505.8195	1615.071	1656.0244	3167.5403	3171.6861	3791.3667
OC1=NC=C(F)C=N1	Oc1ncc(F)cn1	
InChI=1S/C4H3FN2O/c5-3-1-6-4(8)7-2-3/h1-2H,(H,6,7,8)	InChI=1S/C4H3FN2O/c5-3-1-6-4(8)7-2-3/h1-2H,(H,6,7,8)
