9
gdb 21441	4.10845	2.15052	1.43242	1.9581	50.36	-0.3061	-0.1318	0.1744	752.6829	0.046446	-466.615089	-466.60857	-466.607625	-466.646789	22.292	
N	-0.077936304	 1.2478782019	-0.432032422	-0.501616
C	 0.009693994	 0.1388314904	 0.1352567166	 0.507072
O	 1.1402197606	-0.4436745157	 0.5884395212	-0.277244
N	 1.1678910184	-1.9402353278	 0.7531609293	 0.085278
N	 0.1070784154	-2.5122713429	 0.8398618302	-0.110909
C	-1.1700609617	-1.8108319202	 0.8532900726	 0.510494
O	-2.1495537865	-2.3561181748	 1.2354351691	-0.271619
O	-1.1619120433	-0.5526213933	 0.3789050264	-0.200644
H	 0.8387702972	 1.6699664024	-0.5636141133	 0.259189
53.9492	89.2731	278.476	363.2714	452.3764	526.9734	566.2053	617.4374	695.1082	768.8848	773.2832	834.0106	936.363	952.4583	1046.519	1185.521	1295.0727	1708.338	1788.0729	1913.0597	3542.715
N=C1ON=NC(=O)O1	[NH][C]1ON=NC(=O)O1	
InChI=1S/C2HN3O3/c3-1-7-2(6)4-5-8-1/h3H	InChI=1S/C2HN3O3/c3-1-7-2(6)4-5-8-1/h3H
