11
gdb 132954	2.4278	1.74107	1.01394	4.5851	57.1	-0.2571	-0.0587	0.1984	1004.2561	0.064657	-541.769498	-541.762679	-541.761735	-541.801047	25.252	
F	-0.026722856	 0.0413110847	 0.0049474562	-0.04887
C	-0.0258759962	 1.3666381018	 0.0110859269	 0.09392
C	-1.1959408597	 2.0334836131	 0.0294529098	-0.042219
O	-1.2657196699	 3.3815335129	 0.0365758449	-0.173177
C	-0.1144991356	 4.0863102094	 0.0247383826	-0.042219
C	 1.0971365532	 3.4983758746	 0.0061897789	 0.09392
F	 2.1896779126	 4.2485517592	-0.0047375233	-0.04887
C	 1.2774652597	 2.0416774678	-0.002753627	 0.199596
O	 2.3536568295	 1.474694653	-0.0196765033	-0.361415
H	-2.1677144522	 1.5597411588	 0.0399514273	 0.164667
H	-0.2733384952	 5.1557061847	 0.031684687	 0.164667
108.4668	276.4252	289.3341	298.8137	323.4724	449.1364	497.2487	515.7738	524.0951	595.5491	679.615	779.8168	861.0316	882.3328	884.9338	1019.0206	1098.8786	1240.5123	1329.435	1334.2055	1368.7777	1428.4943	1658.272	1696.1151	1762.5903	3237.4148	3241.479
FC1=COC=C(F)C1=O	Fc1cocc(F)c1=O	
InChI=1S/C5H2F2O2/c6-3-1-9-2-4(7)5(3)8/h1-2H	InChI=1S/C5H2F2O2/c6-3-1-9-2-4(7)5(3)8/h1-2H
