10
gdb 123299	2.06708	1.90148	0.99041	2.3661	70.73	-0.2829	-0.1056	0.1773	1052.7065	0.05301	-430.412576	-430.405373	-430.404429	-430.444636	25.779	
C	 0.1299303061	-1.1959790277	-0.0058788332	-0.382846
C	 0.0498251848	 0.0035688548	 0.0018714117	 0.264529
C	-0.0455332052	 1.4054372427	 0.0110137337	 0.056918
C	-1.1482935071	 2.2239589646	 0.0319011338	 0.259214
O	-0.7432147813	 3.4967696942	 0.0324285478	-0.20815
N	 0.6833661778	 3.4555450235	 0.0119998981	 0.016652
N	 1.0486148859	 2.2582552457	 0.0002184217	-0.163337
C	-2.5288251402	 1.9330538413	 0.0503686486	 0.253197
N	-3.6568064774	 1.6755504372	 0.0652637466	-0.316031
H	 0.1973646765	-2.2568985363	-0.0128714788	 0.219853
104.1197	163.6097	190.1912	206.0108	439.8714	462.5292	515.6299	523.4887	601.0296	639.2052	647.6264	683.7819	699.9412	706.0837	782.719	1007.7315	1143.2377	1215.5583	1368.3437	1474.6671	1592.0359	2249.2005	2357.018	3495.1397
C#CC1=C(ON=N1)C#N	C#Cc1c(onn1)C#N	
InChI=1S/C5HN3O/c1-2-4-5(3-6)9-8-7-4/h1H	InChI=1S/C5HN3O/c1-2-4-5(3-6)9-8-7-4/h1H
