11
gdb 23758	3.33867	2.26153	1.34826	1.1562	55.13	-0.2673	-0.0313	0.236	789.8713	0.072672	-446.697571	-446.691773	-446.690829	-446.727628	21.812	
F	 0.023253451	 0.0185144815	 0.003243761	-0.051001
C	-0.0205205974	 1.3442462192	 0.0108230008	 0.200905
C	-1.2247083773	 2.0267102065	 0.0302235266	-0.253474
C	-1.1834651475	 3.4196992053	 0.0370421474	 0.01551
N	-0.0546697769	 4.1310418385	 0.0259971237	-0.260432
C	 1.0984341853	 3.4590242591	 0.00732612	-0.091542
C	 1.165230044	 2.073558124	-0.0008747199	 0.114529
F	 2.3352919465	 1.4415736225	-0.0195679809	-0.057303
H	-2.1593238467	 1.4791248381	 0.0395885459	 0.127632
H	-2.1102598485	 3.9862231906	 0.0521917612	 0.122389
H	 2.0224672375	 4.0310858846	-0.0017748157	 0.132788
191.1387	276.8065	301.0802	439.5618	462.4527	550.5929	600.6129	606.2783	750.4672	792.2668	855.4837	874.3429	941.7382	982.8388	1061.2712	1204.907	1240.5643	1302.4158	1313.4972	1328.2326	1451.464	1547.5838	1629.6536	1641.2579	3168.6774	3171.8846	3212.4376
FC1=CC=NC=C1F	Fc1ccncc1F	
InChI=1S/C5H3F2N/c6-4-1-2-8-3-5(4)7/h1-3H	InChI=1S/C5H3F2N/c6-4-1-2-8-3-5(4)7/h1-3H
