11
gdb 11192	4.49909	1.58472	1.37407	4.6964	51.3	-0.3177	-0.0237	0.294	846.587	0.073188	-434.585489	-434.578976	-434.578032	-434.61702	22.388	
O	 0.0435579541	 0.030258083	-0.0626507847	-0.346234
C	-0.0044004142	 1.2122025047	-0.0262114661	 0.517901
O	-1.1248319906	 1.9626195344	-0.17316838	-0.232399
C	-0.8434471552	 3.3336034412	 0.0835484596	-0.116999
C	 0.7054877929	 3.3897319227	 0.0347143846	-0.049879
O	 1.0820058134	 2.0241964578	 0.1806999503	-0.232477
C	 1.2249985944	 3.9401457685	-1.2259819588	 0.281119
N	 1.6144329041	 4.404277813	-2.208873628	-0.292426
H	-1.3203019329	 3.9493024324	-0.6789761636	 0.164551
H	-1.2190574156	 3.6061601597	 1.0740069613	 0.145117
H	 1.1252886997	 3.9583827326	 0.8677888953	 0.161725
65.5999	140.2852	209.6672	265.9702	488.0033	492.65	588.281	733.0533	763.8011	806.4084	816.6646	897.7483	1013.5664	1051.2838	1096.4045	1106.308	1134.7425	1234.8885	1301.9419	1369.8535	1405.528	1521.2585	1950.2769	2367.6826	3066.7034	3093.8267	3143.5057
O=C1OCC(O1)C#N	O=C1OC[C@@H](O1)C#N	
InChI=1S/C4H3NO3/c5-1-3-2-7-4(6)8-3/h3H,2H2	InChI=1S/C4H3NO3/c5-1-3-2-7-4(6)8-3/h3H,2H2/t3-/m0/s1
