9
gdb 133481	3.65865	1.23936	1.10514	0.4014	42.26	-0.3557	-0.1006	0.2551	981.0986	0.038206	-615.098097	-615.091269	-615.090325	-615.13099	23.377	
F	 0.3767006638	 0.1441779477	 0.2018534841	-0.056243
C	-0.0299259254	 1.4007905863	 0.0164452952	 0.273021
F	 1.046472885	 2.1572559491	-0.2019110451	-0.056177
F	-0.8147025997	 1.4473221526	-1.0535980021	-0.044357
C	-0.7680447326	 1.8909054187	 1.2356946069	 0.255331
N	-1.9994977486	 2.303587205	 1.2432779831	-0.121257
O	-2.227267998	 2.6352605067	 2.5267830011	-0.126335
N	-1.0660674395	 2.3955368667	 3.2723363304	 0.056843
N	-0.194783745	 1.9483797871	 2.4872355065	-0.180827
29.7962	151.7781	180.6999	369.3593	401.281	409.3834	562.7157	582.5788	657.2752	681.0598	761.5108	792.1797	975.0635	1049.8129	1081.5795	1187.1989	1213.4766	1238.6199	1348.5059	1496.1037	1600.6176
FC(F)(F)C1=NON=N1	FC(F)(F)c1nonn1	
InChI=1S/C2F3N3O/c3-2(4,5)1-6-8-9-7-1	InChI=1S/C2F3N3O/c3-2(4,5)1-6-8-9-7-1
