11
gdb 130660	3.19208	1.57155	1.05309	2.0662	68.09	-0.271	-0.0948	0.1762	1011.8563	0.064742	-451.496093	-451.488869	-451.487925	-451.528365	26.104	
O	 0.0412770787	-0.015264703	 0.0024425547	-0.29832
C	-0.0090927535	 1.1879621964	 0.0093809649	 0.353306
N	-1.2103201218	 1.907260808	 0.0295022156	-0.305394
C	-1.1238432294	 3.1794811842	 0.0353681957	 0.168077
O	-0.0177819673	 3.9393919586	 0.024845994	-0.196104
N	 1.2365906622	 3.3318592397	 0.0048038365	-0.128558
C	 1.2345748291	 2.0347663937	-0.0025030468	 0.043331
C	 2.5004042221	 1.393010285	-0.0219425406	 0.305659
C	 3.5553140941	 0.8168445231	-0.0384571611	-0.330591
H	-2.0046544524	 3.8185782945	 0.050696454	 0.168547
H	 4.4878055782	 0.3068572398	-0.0534011769	 0.220045
60.3579	140.9393	188.9346	362.6188	393.3378	441.7582	473.0967	553.7093	564.9471	610.1697	671.6054	674.477	711.8902	837.76	907.9863	927.1486	984.2733	1027.275	1201.8111	1317.7893	1416.241	1574.356	1654.9117	1814.3831	2238.9318	3170.2473	3497.6459
O=C1N=CON=C1C#C	O=c1nconc1C#C	
InChI=1S/C5H2N2O2/c1-2-4-5(8)6-3-9-7-4/h1,3H	InChI=1S/C5H2N2O2/c1-2-4-5(8)6-3-9-7-4/h1,3H
