11
gdb 133338	1.9293	1.01846	0.73254	4.1084	54.65	-0.2655	-0.0663	0.1992	1422.6855	0.059086	-530.028722	-530.017583	-530.016638	-530.070999	32.53	
N	-0.2926024757	 1.7536402393	 0.2924522695	-0.559501
C	-0.1544887411	 0.4239485287	-0.196386885	-0.296023
C	-1.236484097	-0.5487979107	-0.2578573348	 0.38881
F	-2.3879156746	-0.042992792	 0.2008761329	-0.057911
O	-1.1636753494	-1.6730322586	-0.6591605406	-0.342062
N	 0.9399600844	-4.2740539148	 0.6316343269	 0.000832
N	 1.1976155658	-3.21007528	 0.7228883594	-0.003147
C	 1.0414883693	 0.0092258896	-0.6367553429	 0.538251
O	 2.1031410358	-0.2607221517	-0.997852322	-0.186353
H	 0.2461908516	 1.9493771478	 1.1262564944	 0.258743
H	-0.1370678593	 2.4722484223	-0.4026906578	 0.25836
10.7609	18.7847	33.6628	42.438	74.2693	99.346	138.9348	216.8004	257.0234	259.9093	486.614	497.0161	613.1544	654.7451	694.034	755.4758	794.1328	1117.4566	1200.6764	1322.3481	1351.1716	1658.5918	1840.7412	2215.597	2433.385	3530.8914	3617.6722	10.7614	18.7844	33.6627	42.438	74.2693	99.346	138.9346	216.8005	257.0235	259.9094	486.6141	497.0161	613.1539	654.7451	694.0337	755.4761	794.1327	1117.4563	1200.6763	1322.3481	1351.1717	1658.5917	1840.7417	2215.5958	2433.3851	3530.8914	3617.6723
NC1=C(F)ON=NC1=O	N[C](C(=O)F)[C][O].N#N	
InChI=1S/C3H2FN3O2/c4-2-1(5)3(8)6-7-9-2/h5H2	InChI=1S/C3H2FNO2.N2/c4-3(7)2(5)1-6;1-2/h5H2;
