11
gdb 24901	3.766	1.33148	0.98369	4.3383	69.62	-0.2928	-0.1091	0.1837	1074.3743	0.065419	-451.558796	-451.55162	-451.550676	-451.590997	25.683	
O	-0.0955323123	-0.0083799668	 0.0040391802	-0.3034
C	 0.0331857448	 1.17151926	 0.0087679019	 0.454749
O	-1.1910879218	 1.9464930934	 0.0297477684	-0.225476
C	-1.125178576	 3.2763641191	 0.0360863643	 0.270062
N	-0.0244722629	 3.9633248728	 0.0249800763	-0.318279
C	 1.1107926117	 3.1950697892	 0.005471	 0.081377
N	 1.1997848824	 1.9006806308	-0.0030381893	-0.296481
C	-2.3966415106	 3.9161997359	 0.057126648	 0.258133
C	-3.4734262269	 4.4492552336	 0.0748867763	-0.298298
H	 2.0429680427	 3.7565021408	-0.0044925981	 0.150215
H	-4.4242132412	 4.9256078413	 0.090576642	 0.227397
95.2763	120.7393	144.8426	302.4707	437.813	439.6302	496.0173	559.2629	590.2531	681.3703	705.2087	761.0258	763.0291	804.3161	814.7735	941.8163	1032.2582	1039.0243	1241.8656	1319.223	1424.8911	1539.3343	1644.4763	1913.0515	2246.1282	3165.0587	3492.6472
O=C1OC(=NC=N1)C#C	O=c1oc(ncn1)C#C	
InChI=1S/C5H2N2O2/c1-2-4-6-3-7-5(8)9-4/h1,3H	InChI=1S/C5H2N2O2/c1-2-4-6-3-7-5(8)9-4/h1,3H
