10
gdb 132240	2.1479	1.9918	1.03345	0.4573	52.9	-0.3064	-0.0641	0.2423	992.5059	0.053495	-549.900884	-549.89415	-549.893206	-549.932917	23.908	
F	 0.0657442167	 0.1146267848	-0.1212935155	-0.011292
C	-0.1071195051	 1.3916224281	 0.0255193557	 0.424914
N	-1.2349419124	 1.9297176913	-0.1273592865	-0.360792
C	-1.3094578115	 3.2955508101	 0.0516243876	 0.455201
N	-2.3651159556	 3.9591952355	-0.0683749424	-0.484704
O	-0.0948636178	 3.9639278468	 0.3938974433	-0.253895
C	 1.0820103295	 3.3475568639	 0.5456713688	 0.507102
O	 2.0942082584	 3.8861042879	 0.8280714458	-0.308511
O	 1.0630671726	 1.9652819049	 0.3450122863	-0.221432
H	-2.2014659948	 4.9496977866	 0.1059102469	 0.253408
87.467	120.7434	203.1516	382.652	387.9659	521.606	534.3168	627.3465	665.8757	696.9891	745.1807	762.0441	865.6098	887.2893	969.0621	1012.323	1087.6939	1175.0744	1315.3408	1381.7895	1781.3993	1794.6992	1952.6089	3523.1931
FC1=NC(=N)OC(=O)O1	F[C]1N=C([NH])OC(=O)O1	
InChI=1S/C3HFN2O3/c4-1-6-2(5)9-3(7)8-1/h5H	InChI=1S/C3HFN2O3/c4-1-6-2(5)9-3(7)8-1/h5H
