11
gdb 21759	5.65689	2.36577	1.66814	4.3963	56.73	-0.2396	-0.0314	0.2082	682.8532	0.075437	-393.574352	-393.56927	-393.568326	-393.603446	19.683	
O	-0.0174533393	 1.2984642842	 0.0093019323	-0.241689
N	 1.3110525877	 1.7883578463	-0.0008375579	-0.120789
C	 2.0848902445	 0.7453505324	-0.0139119143	 0.04242
N	 1.3698794637	-0.421126672	-0.0133603532	-0.049922
C	 1.36690757	-1.8138148145	-0.020818092	-0.159411
C	 0.03259907	-2.1366559514	-0.009730049	-0.071083
N	-0.801434891	-1.022225167	 0.0043194405	-0.391177
C	 0.0504822881	-0.0433912508	 0.0013865456	 0.534335
H	 3.1604374633	 0.8213843304	-0.0238466299	 0.181673
H	 2.2668127662	-2.4017986873	-0.0326637944	 0.147197
H	-0.3893971232	-3.1304319302	-0.0110289077	 0.128445
216.082	331.3648	491.1826	592.0512	609.8227	677.4668	718.9798	753.758	779.8854	859.6141	874.9025	888.7983	938.798	978.8767	1093.8534	1158.6444	1215.8125	1227.326	1305.2935	1381.1562	1444.2569	1508.9832	1581.9102	1645.8419	3254.2584	3280.615	3303.3967
O1N=CN2C=CN=C12	o1ncn2ccnc12	
InChI=1S/C4H3N3O/c1-2-7-3-6-8-4(7)5-1/h1-3H	InChI=1S/C4H3N3O/c1-2-7-3-6-8-4(7)5-1/h1-3H
