11
gdb 130914	2.86981	1.59388	1.02474	2.6681	59.89	-0.2701	-0.1211	0.149	1025.1228	0.064792	-488.668374	-488.66108	-488.660135	-488.701448	25.026	
O	-0.0722791681	-0.0123050509	 0.0001184902	-0.22337
C	-0.013929438	 1.1871995568	 0.006627816	 0.123886
C	 1.2896012293	 1.9615041742	-0.0011658356	 0.123299
N	 2.3707569611	 1.2624975552	-0.0181017001	-0.084013
O	 3.5603459365	 1.9778863798	-0.0249776124	-0.195024
C	 3.519681446	 3.3256189177	-0.0135640793	 0.179611
N	 2.496280029	 4.0845614146	 0.0031622152	-0.302726
C	 1.2447583188	 3.4504783074	 0.0108474806	 0.369586
O	 0.1995061436	 4.0566234085	 0.0261076439	-0.309621
H	-0.9026184594	 1.8414545374	 0.0188496002	 0.141895
H	 4.5346246013	 3.7179544294	-0.0208477187	 0.176477
51.6282	69.2632	204.0262	267.2696	370.1416	407.1005	473.5658	500.8405	597.2219	654.3114	774.1328	820.92	910.2073	946.6158	987.1063	1013.8152	1035.1207	1174.0773	1303.2396	1398.7338	1414.4205	1599.6828	1666.2304	1801.5221	1825.6164	2999.7184	3173.9598
O=CC1=NOC=NC1=O	O=Cc1nocnc1=O	
InChI=1S/C4H2N2O3/c7-1-3-4(8)5-2-9-6-3/h1-2H	InChI=1S/C4H2N2O3/c7-1-3-4(8)5-2-9-6-3/h1-2H
