11
gdb 133460	3.60492	1.22808	1.0903	0.9282	49.1	-0.2757	-0.0302	0.2455	1021.2975	0.063631	-583.074996	-583.068052	-583.067108	-583.107592	24.508	
F	-0.5015404414	 0.0811363203	-0.2130274546	-0.066559
C	-0.0497699625	 1.3137215741	 0.0538672809	 0.237916
F	 1.2794183474	 1.2527104564	 0.1912535124	-0.066603
F	-0.3273836825	 2.0737593906	-1.0136815854	-0.066473
C	-0.6465989029	 1.8666736633	 1.3003030354	 0.162651
C	-0.1264092258	 2.29300216	 2.4745898996	-0.17959
N	-1.1629847136	 2.7133843762	 3.2957658168	-0.252921
C	-2.2262788504	 2.5209686968	 2.5858276843	 0.083419
O	-2.0023684411	 2.0069917952	 1.3550371811	-0.172202
H	 0.9050038252	 2.3274707134	 2.7843939782	 0.153689
H	-3.2544340724	 2.7156688536	 2.8470479615	 0.166673
49.568	134.3854	171.0021	371.5562	382.855	411.3582	548.4499	581.6941	664.3052	716.7315	749.0898	859.2947	895.0466	937.9172	971.8152	1110.5544	1126.0784	1148.7561	1185.8315	1209.0167	1258.9193	1324.9695	1374.5081	1537.7537	1644.0121	3280.8144	3284.5961
FC(F)(F)C1=CN=CO1	FC(F)(F)c1cnco1	
InChI=1S/C4H2F3NO/c5-4(6,7)3-1-8-2-9-3/h1-2H	InChI=1S/C4H2F3NO/c5-4(6,7)3-1-8-2-9-3/h1-2H
