11
gdb 21676	7.44166	1.38185	1.16648	1.8092	63.22	-0.2431	-0.0548	0.1884	933.8303	0.072523	-393.548849	-393.542122	-393.541177	-393.579608	24.916	
N	 0.0011162362	 1.3575493552	 0.1467392228	-0.601129
C	-0.018659336	-0.0059279263	 0.0432430074	 0.386611
N	-1.1269687638	-0.7157107432	-0.0155744003	-0.184448
O	-0.6532930374	-2.0372675204	-0.0379696809	-0.204089
C	 0.6850555544	-1.9607878052	-0.0034689325	 0.29184
N	 1.143267243	-0.7413923665	 0.0461439435	-0.35866
C	 1.4218280145	-3.1652000069	-0.0230027862	 0.244725
C	 2.0385773953	-4.1963563267	-0.0403138173	-0.328691
H	 0.8510008582	 1.7875865276	-0.1836259054	 0.271023
H	-0.845089541	 1.8247498461	-0.1412708381	 0.269939
H	 2.5884210566	-5.1058283837	-0.0546386029	 0.21288
139.1832	151.214	300.8536	343.837	401.6662	445.9891	542.5913	556.7007	581.4539	653.9877	691.5474	724.9603	770.389	789.1286	942.8537	1027.9671	1064.6707	1125.8025	1277.2258	1435.2744	1565.5433	1609.1095	1655.213	2252.0938	3497.6653	3588.128	3698.859
NC1=NOC(=N1)C#C	Nc1noc(n1)C#C	
InChI=1S/C4H3N3O/c1-2-3-6-4(5)7-8-3/h1H,(H2,5,7)	InChI=1S/C4H3N3O/c1-2-3-6-4(5)7-8-3/h1H,(H2,5,7)
