11
gdb 50796	7.70396	0.60767	0.56324	4.1478	75.29	-0.285	-0.1108	0.1742	1755.7876	0.064567	-451.563782	-451.55515	-451.554206	-451.598525	28.38	
O	-0.3816689501	 0.0898893571	 0.0060857174	-0.235202
C	-0.0899100419	 1.249910112	 0.0094455103	 0.16681
N	 1.209891021	 1.7731052356	-0.0005887789	-0.351401
C	 2.4064263942	 1.0569797658	-0.0157874488	 0.285314
O	 2.5123619323	-0.1412802381	-0.0232529453	-0.271568
C	 3.5743065794	 1.9362643291	-0.0220588675	-0.075871
C	 4.5823804927	 2.6030169943	-0.0279812921	 0.200855
C	 5.7134488084	 3.3678689362	-0.0345250131	 0.213708
N	 6.6706072239	 4.0252340017	-0.0399820455	-0.312469
H	-0.8276283556	 2.0757639234	 0.0205046521	 0.104923
H	 1.2886230758	 2.780926373	 0.0039642215	 0.274901
47.2994	65.4715	122.0019	194.9658	219.6821	237.001	312.0021	358.7188	535.9222	580.5171	586.844	612.8207	622.4915	761.0667	936.571	970.8614	1026.7845	1140.2036	1206.6181	1442.175	1504.6955	1789.4928	1865.9099	2258.6197	2392.8259	2949.3643	3600.5901
O=CNC(=O)C#CC#N	O=CNC(=O)C#CC#N	
InChI=1S/C5H2N2O2/c6-3-1-2-5(9)7-4-8/h4H,(H,7,8,9)	InChI=1S/C5H2N2O2/c6-3-1-2-5(9)7-4-8/h4H,(H,7,8,9)
