11
gdb 21438	3.81539	2.02844	1.32435	0.1694	55.38	-0.2595	-0.0604	0.1991	818.9493	0.072696	-430.724394	-430.718006	-430.717062	-430.755229	22.754	
N	-0.1181876642	 1.313180099	 0.0112817511	-0.584077
C	-0.0073294178	 0.0597703959	 0.0036709321	 0.518632
O	 1.1240308462	-0.7110167286	-0.0077735415	-0.24817
N	 0.7727629626	-2.0941684198	-0.0131323603	-0.115974
C	-0.5087168295	-2.117728025	-0.0051420238	 0.086732
N	-1.0722718066	-0.8580442486	 0.0054185254	-0.159017
C	-2.436523237	-0.5499739829	 0.0158494628	 0.180021
O	-3.28859734	-1.3973873977	 0.0162592952	-0.283873
H	 0.7888587356	 1.7725553481	 0.0080309685	 0.250281
H	-1.1032844155	-3.0176178041	-0.0063078564	 0.201436
H	-2.5996612338	 0.5373484336	 0.0225673168	 0.154011
133.8186	195.7651	200.8995	273.1055	388.1162	577.9061	605.2821	701.1236	727.7095	781.0713	837.0072	877.8513	905.7881	948.3387	1028.2866	1046.8296	1191.3413	1213.5359	1287.3509	1402.9794	1423.3734	1659.7355	1793.7117	1823.3018	3054.0905	3285.4575	3545.8863
N=C1ON=CN1C=O	[NH][C@H]1ON=CN1C=O	
InChI=1S/C3H3N3O2/c4-3-6(2-7)1-5-8-3/h1-2,4H	InChI=1S/C3H4N3O2/c4-3-6(2-7)1-5-8-3/h1-4H/t3-/m1/s1
