11
gdb 21902	7.83967	1.30538	1.11905	1.7108	63.86	-0.2498	-0.0461	0.2036	958.1457	0.071756	-397.361725	-397.355146	-397.354202	-397.392402	24.606	
O	 0.0661131014	 1.359838781	 0.0698893509	-0.422093
C	 0.0652874561	 0.0199554602	 0.0592111442	 0.464478
N	 0.0969097878	-0.6679398197	-1.0590766415	-0.238778
O	 0.0846527543	-2.0034208256	-0.6710676734	-0.217394
C	 0.0455560321	-2.0670107053	 0.6815991728	 0.330523
C	 0.0314439711	-0.8086268413	 1.2098022244	-0.455425
C	 0.0273073487	-3.3429630642	 1.2771783815	 0.247318
C	 0.0115359173	-4.4299632126	 1.7924956614	-0.371382
H	 0.0928370919	 1.6620703517	-0.8482462375	 0.314043
H	 0.0018707141	-0.5183283408	 2.2451063728	 0.140108
H	-0.0023351747	-5.3907074935	 2.2457544543	 0.208602
133.9676	150.9031	324.0689	392.3116	446.7506	468.888	541.9687	552.3848	612.3792	681.0384	691.2194	721.7488	747.0755	823.5505	972.8134	1003.7873	1054.8179	1156.2055	1225.3047	1277.7294	1514.2742	1555.4075	1631.9331	2242.0283	3296.7733	3500.273	3777.6798
OC1=NOC(=C1)C#C	Oc1noc(c1)C#C	
InChI=1S/C5H3NO2/c1-2-4-3-5(7)6-8-4/h1,3H,(H,6,7)	InChI=1S/C5H3NO2/c1-2-4-3-5(7)6-8-4/h1,3H,(H,6,7)
