8
gdb 23876	3.23748	1.75638	1.4251	1.2972	39.07	-0.3347	-0.1289	0.2058	794.6873	0.032052	-543.763269	-543.75609	-543.755146	-543.79615	23.438	
F	 0.0412781385	 0.0696679696	-0.0690902197	-0.035196
C	-0.0170845987	 1.385067965	 0.0098844376	 0.231171
F	 1.2185693905	 1.8898372302	 0.0156737703	-0.06032
F	-0.6685727197	 1.8700643045	-1.0493131968	-0.06026
C	-0.751775928	 1.8215819222	 1.3039840128	 0.177729
O	-1.1901437699	 1.0411063986	 2.0972968655	-0.221715
C	-0.8563818616	 3.2765405971	 1.4601025806	 0.247786
N	-0.9390197111	 4.4226660728	 1.5834998098	-0.279195
29.4649	130.8212	193.5774	268.3174	306.2544	406.9537	429.5695	518.3461	567.1566	668.3198	769.6049	776.7857	1041.4254	1204.8308	1251.9502	1319.9201	1838.9686	2347.1045
FC(F)(F)C(=O)C#N	FC(F)(F)C(=O)C#N	
InChI=1S/C3F3NO/c4-3(5,6)2(8)1-7	InChI=1S/C3F3NO/c4-3(5,6)2(8)1-7
