8
gdb 23828	2.29466	1.33294	0.89912	1.2666	42.05	-0.3196	-0.0499	0.2697	1119.5129	0.031652	-490.78148	-490.772175	-490.771231	-490.820861	25.421	
F	-0.2363200446	-0.1464898419	-0.4005138104	-0.05045
C	-0.1906203384	 1.0552802775	 0.1536743251	 0.431405
N	-1.3871968191	 1.703536341	-0.1023753658	-0.456676
C	-1.7637238143	 2.8234529879	 0.2041610674	 0.628659
O	-2.2464049728	 3.8508887015	 0.4305914829	-0.239389
N	 1.0361540465	 4.3442470131	-0.5064308059	-0.006121
N	 1.9959333192	 4.862660942	-0.377304789	 0.007165
O	 0.7511256635	 1.4501998888	 0.7590144659	-0.314593
17.6199	28.4306	43.7677	51.3522	86.8103	100.7982	129.7753	495.0549	566.7469	631.3355	694.7006	763.9411	887.3546	1199.1272	1501.84	1893.2099	2366.9717	2434.7406	17.62	28.4316	43.7686	51.3526	86.8109	100.7977	129.7752	495.055	566.7468	631.3351	694.7004	763.9412	887.3542	1199.1266	1501.84	1893.2102	2366.971	2434.7407
FC1=NC(=O)N=NO1	FC(=O)N=C=O.N#N	
InChI=1S/C2FN3O2/c3-1-4-2(7)5-6-8-1	InChI=1S/C2FNO2.N2/c3-2(6)4-1-5;1-2
