10
gdb 130668	3.20857	1.54413	1.04245	2.2485	67.38	-0.2731	-0.1197	0.1534	1005.5165	0.05029	-467.475322	-467.467716	-467.466772	-467.508381	26.916	
O	 0.0321430386	-0.0145451585	 0.0027463286	-0.269036
C	 0.0496305716	 1.1847806396	 0.0089201826	 0.359715
N	-1.208739025	 1.9049503045	 0.029040849	-0.114506
N	-1.2975101674	 3.1180240315	 0.0367583204	 0.074978
O	-0.0375719316	 3.9204819111	 0.0249064491	-0.221866
N	 1.166642352	 3.3446220544	 0.0061869501	-0.088559
C	 1.2399332253	 2.0394332525	-0.0019336787	 0.056576
C	 2.5273688082	 1.4462431299	-0.0213721693	 0.323212
C	 3.6028236835	 0.9091310508	-0.0378484364	-0.345412
H	 4.5558120849	 0.4381434443	-0.0524333453	 0.224899
31.931	138.2653	185.2959	340.6952	357.5722	393.7946	431.4739	465.1268	564.3195	569.0698	579.3783	666.5378	689.2245	722.9603	829.7085	894.5127	1011.2015	1105.8532	1341.2405	1529.1836	1658.4467	1834.0449	2239.1489	3495.6139
O=C1N=NON=C1C#C	O=c1nnonc1C#C	
InChI=1S/C4HN3O2/c1-2-3-4(8)5-7-9-6-3/h1H	InChI=1S/C4HN3O2/c1-2-3-4(8)5-7-9-6-3/h1H
