11
gdb 21395	5.71768	2.3849	1.68293	0.6669	57.44	-0.2326	-0.0358	0.1968	676.3168	0.076037	-389.740844	-389.735657	-389.734713	-389.769962	20.023	
N	 0.0058485186	 1.3240170856	 0.0452384894	-0.360501
N	 1.2882114023	 1.774984277	 0.0256023854	-0.066391
N	 2.0923852179	 0.7748695998	-0.0075132375	-0.138173
N	 1.3221191095	-0.347444039	-0.0093574284	 0.040703
C	 1.4122852237	-1.7273946428	-0.0334196324	-0.144899
C	 0.0935606822	-2.1293730067	-0.011432742	-0.073359
N	-0.8076428405	-1.074615162	 0.0249606322	-0.388282
C	-0.0096420955	-0.0366996463	 0.0242545986	 0.552567
H	-0.7535258286	 1.9818639091	 0.0724745959	 0.302573
H	 2.3483868953	-2.2543689636	-0.0623136183	 0.152133
H	-0.2648315049	-3.1481861711	-0.0198825429	 0.123629
233.8399	332.3277	434.6446	481.9384	616.5155	667.1492	700.719	719.8317	752.4392	794.288	875.4033	954.4638	1020.4945	1046.1395	1086.7558	1160.6086	1226.6805	1273.111	1328.8539	1380.4226	1429.5637	1446.9451	1500.23	1655.6181	3249.566	3310.4857	3697.5174
N1N=NN2C=CN=C12	[nH]1nnn2ccnc12	
InChI=1S/C3H3N5/c1-2-8-3(4-1)5-6-7-8/h1-2H,(H,4,5,7)	InChI=1S/C3H3N5/c1-2-8-3(4-1)5-6-7-8/h1-2H,(H,4,5,7)
