10
gdb 21755	5.73526	2.22612	1.60366	0.	53.92	-0.2732	-0.0655	0.2077	688.3864	0.062811	-413.399299	-413.394348	-413.393404	-413.428368	18.897	
O	-0.0077273743	 1.3666445136	 0.0094816921	-0.223061
N	 1.3319350542	 1.8025553521	-0.0010300824	-0.111348
C	 2.1076076023	 0.7373271635	-0.0142194012	-0.111628
C	 1.3062151938	-0.4290160994	-0.0127879542	 0.283472
C	 0.023984681	 0.027648539	 0.0019895952	 0.283472
C	-0.7774076449	-1.1386947315	 0.0034268232	-0.111628
N	-0.0017348859	-2.2039231326	-0.0097387056	-0.111348
O	 1.3379270247	-1.7680119558	-0.0202968909	-0.223061
H	 3.1782934092	 0.8717828529	-0.0237878911	 0.162566
H	-1.8480934301	-1.2731506119	 0.0129944949	 0.162566
229.9764	360.9437	459.9956	618.4543	620.4309	674.631	746.3735	770.4708	855.1684	880.7273	885.3027	886.4102	945.928	996.0217	1181.1619	1210.2146	1232.6381	1413.3369	1427.128	1466.5251	1550.2671	1628.6924	3264.9971	3265.1901
O1N=CC2=C1C=NO2	o1ncc2c1cno2	
InChI=1S/C4H2N2O2/c1-3-4(8-5-1)2-6-7-3/h1-2H	InChI=1S/C4H2N2O2/c1-3-4(8-5-1)2-6-7-3/h1-2H
