11
gdb 132836	3.06782	1.59505	1.04942	4.6373	67.43	-0.2934	-0.0987	0.1947	1003.0549	0.06727	-455.748407	-455.741809	-455.740865	-455.779828	23.983	
F	-0.0063525359	 0.0546490379	 0.0034571447	-0.029099
C	-0.0269405917	 1.3724940836	 0.0108985777	 0.316005
N	-1.1972225606	 1.9596329842	 0.0291857326	-0.285526
C	-1.1854590648	 3.2959016653	 0.0362350964	-0.002738
C	 0.0061321056	 4.0183751159	 0.0247347962	-0.02654
N	 1.1917018821	 3.4122650787	 0.006126994	-0.280985
C	 1.188885694	 2.0773307246	-0.001044252	 0.07239
C	 2.4410850599	 1.3782544585	-0.0210419886	 0.268277
N	 3.4404848606	 0.7971445197	-0.0371245003	-0.317515
H	-2.1492727433	 3.7958274173	 0.051407875	 0.14566
H	 0.0062815541	 5.1035057744	 0.0305991244	 0.14007
116.622	149.7927	242.7807	394.2867	417.256	489.6923	535.3972	585.1696	614.09	616.7155	739.7488	830.7192	894.8421	904.8194	995.8247	1095.5582	1164.5114	1255.5141	1286.2559	1335.8559	1448.3994	1490.163	1586.628	1607.3743	2356.534	3177.7575	3195.5996
FC1=NC=CN=C1C#N	Fc1nccnc1C#N	
InChI=1S/C5H2FN3/c6-5-4(3-7)8-1-2-9-5/h1-2H	InChI=1S/C5H2FN3/c6-5-4(3-7)8-1-2-9-5/h1-2H
