11
gdb 130755	5.71594	1.06629	0.89865	3.6797	67.67	-0.2963	-0.1218	0.1745	1149.1184	0.065923	-451.55198	-451.545012	-451.544067	-451.583808	25.233	
O	 0.0108403365	-0.0658316594	 0.0028689423	-0.304245
C	 0.0455217645	 1.1285323589	 0.0088021658	 0.45917
O	-1.1932649437	 1.8103516764	 0.0281925886	-0.24788
N	-1.3352252605	 3.164023981	 0.0368514942	-0.087368
C	-0.246719411	 3.8751532627	 0.0262914903	 0.221697
C	 1.0863505341	 3.3219346739	 0.0061004879	-0.118327
C	 1.2217712302	 1.9851917723	-0.0024100658	-0.221358
C	-0.4334953026	 5.2978735991	 0.0358993172	 0.275047
N	-0.5200124318	 6.4506870812	 0.0428290746	-0.300174
H	 1.9360903424	 3.9947031233	-0.0016370257	 0.161407
H	 2.1822799919	 1.4853107206	-0.0175442493	 0.162031
81.3792	157.3946	213.0122	331.5411	423.5697	456.6518	484.1593	540.9086	584.9122	632.4461	712.9456	767.3453	769.7454	867.685	923.3154	1024.1169	1063.8627	1116.6837	1217.1411	1255.6385	1428.5558	1550.7075	1670.7083	1870.9343	2360.5894	3204.739	3226.1922
O=C1ON=C(C=C1)C#N	O=c1onc(cc1)C#N	
InChI=1S/C5H2N2O2/c6-3-4-1-2-5(8)9-7-4/h1-2H	InChI=1S/C5H2N2O2/c6-3-4-1-2-5(8)9-7-4/h1-2H
