10
gdb 21428	3.96408	2.15275	1.39511	2.6095	53.08	-0.3116	-0.0958	0.2158	776.7485	0.060237	-450.594118	-450.587979	-450.587035	-450.624914	21.868	
N	-0.0802262338	 1.295949221	 0.2214842216	-0.486962
C	-0.0647676726	 0.0615129846	-0.0283041381	 0.382005
O	 1.0637082981	-0.5941188139	-0.4829091864	-0.254762
C	 1.0791831204	-1.9302452458	-0.752791504	 0.516381
O	 2.0576404124	-2.4727961258	-1.1418639948	-0.313856
O	-0.0777492159	-2.6292794742	-0.5591912241	-0.259731
N	-1.2716279101	-2.0422960007	-0.0994227141	-0.042281
C	-1.2352219718	-0.7904513252	 0.1388624451	 0.021851
H	 0.8291855423	 1.7271429405	 0.0457853618	 0.25402
H	-2.1545789291	-0.3384335504	 0.492951493	 0.183334
104.0841	122.8472	367.1223	371.8513	502.4428	532.3878	572.1362	712.8707	729.2289	753.4378	908.1463	910.1118	922.0044	943.7634	998.6743	1107.0227	1145.2317	1299.7632	1364.655	1689.1137	1757.5715	1921.3227	3218.4924	3486.4929
N=C1OC(=O)ON=C1	[NH][C]1OC(=O)ON=C1	
InChI=1S/C3H2N2O3/c4-2-1-5-8-3(6)7-2/h1,4H	InChI=1S/C3H2N2O3/c4-2-1-5-8-3(6)7-2/h1,4H
