11
gdb 130559	3.78815	1.37201	1.00721	1.5701	66.04	-0.3021	-0.1032	0.1989	1052.3054	0.065499	-447.676649	-447.669421	-447.668476	-447.709136	25.186	
O	 0.0001781576	-0.0676130854	 0.0033899816	-0.253011
C	-0.0128118324	 1.129753265	 0.0070134996	 0.32135
C	 1.1467899767	 1.9784510676	 0.0013149874	 0.25585
C	 2.1708293398	 2.6068145427	-0.0040713199	-0.372522
N	-1.2582941968	 1.8524034132	 0.0181738765	 0.042046
N	-2.4520936042	 1.2545538835	 0.0249175893	-0.205598
C	-3.2589129289	 2.2940627145	 0.0339992615	 0.094745
N	-2.591364059	 3.4881978962	 0.0327489045	-0.193429
N	-1.3308400798	 3.197726434	 0.0227045366	-0.086911
H	 3.0698530939	 3.1752686611	-0.008642824	 0.232009
H	-4.333764037	 2.2126082375	 0.0415201069	 0.165471
65.8923	134.1712	158.0847	259.5331	273.0833	452.3166	508.1494	679.742	681.1728	684.2582	720.35	728.0987	763.842	915.741	975.9985	1026.1206	1087.0456	1128.4223	1174.866	1287.8548	1315.8748	1377.9913	1511.9968	1823.7035	2235.1067	3289.303	3492.0824
O=C(C#C)N1N=CN=N1	O=C(C#C)n1ncnn1	
InChI=1S/C4H2N4O/c1-2-4(9)8-6-3-5-7-8/h1,3H	InChI=1S/C4H2N4O/c1-2-4(9)8-6-3-5-7-8/h1,3H
