11
gdb 130601	3.08002	1.56513	1.03778	5.9834	66.52	-0.2796	-0.1057	0.1739	1018.1255	0.066113	-451.536713	-451.529765	-451.528821	-451.568493	25.14	
O	 0.060384136	-0.054530441	 0.0019509961	-0.322437
C	-0.018781698	 1.1564466382	 0.0097089992	 0.342097
C	-1.2326259876	 1.9483482954	 0.030104005	-0.261513
C	-1.138843494	 3.2885465126	 0.0361517523	 0.115403
O	 0.0202106654	 3.977720487	 0.0245002327	-0.214169
N	 1.2267294876	 3.3256401362	 0.0048231696	-0.092498
C	 1.2003484184	 2.029331085	-0.0020187753	 0.089842
C	 2.4878947466	 1.3949592105	-0.0219408655	 0.314435
N	 3.5147825805	 0.8652181618	-0.0380310534	-0.296537
H	-2.1968451879	 1.4572032788	 0.0402324868	 0.153522
H	-1.9760929069	 3.9768282257	 0.0510233924	 0.171856
94.7494	152.0742	210.33	382.4476	388.3408	439.2918	452.1797	572.2879	577.6572	597.3526	686.5964	791.1214	866.3666	884.656	948.5745	982.012	1020.9363	1163.762	1253.9113	1320.5787	1424.624	1568.5617	1653.1914	1781.7901	2362.3839	3211.8309	3232.7737
O=C1C=CON=C1C#N	O=c1cconc1C#N	
InChI=1S/C5H2N2O2/c6-3-4-5(8)1-2-9-7-4/h1-2H	InChI=1S/C5H2N2O2/c6-3-4-5(8)1-2-9-7-4/h1-2H
