11
gdb 129317	2.06023	1.19227	0.94927	2.5742	58.13	-0.3005	-0.1159	0.1846	1214.2505	0.06253	-484.942758	-484.933371	-484.932427	-484.982356	28.127	
N	-0.0929938432	 1.2620961531	 0.1960386489	-0.502551
C	-0.5144581818	 0.1861351519	-0.3039892027	 0.393928
O	-0.243145877	-0.3291661073	-1.5440360911	-0.229392
N	 2.6543317189	-3.3807727564	-0.5138936231	 0.005263
N	 1.8067338208	-2.6972685273	-0.3687822636	-0.004104
C	-0.9342231737	-1.5450585315	-1.6480022977	 0.491436
O	-0.8842116419	-2.2248567006	-2.6163910581	-0.297564
N	-1.6663904184	-1.7922369029	-0.4389270603	-0.260821
C	-1.4201642723	-0.7988005696	 0.3278122802	-0.025974
H	 0.520660528	 1.7640808197	-0.4489976727	 0.254471
H	-1.8268160294	-0.6853032292	 1.3263943103	 0.175308
13.2107	19.8796	44.7716	56.5584	66.2263	167.5457	295.8461	371.4496	560.6707	642.0526	674.1537	755.3505	810.7067	865.6058	910.4688	918.3012	993.4067	1042.2363	1099.7898	1298.3293	1343.9991	1657.2489	1775.0716	1931.7138	2434.6192	3217.8281	3480.3595	13.2095	19.8772	44.7702	56.5551	66.224	167.546	295.8462	371.4496	560.6706	642.0527	674.1536	755.3504	810.7066	865.6061	910.469	918.3012	993.4071	1042.2365	1099.7898	1298.3297	1343.999	1657.2492	1775.0714	1931.7136	2434.6192	3217.8281	3480.3593
N=C1ON=NC(=O)N=C1	[NH]c1oc(=O)nc1.N#N	
InChI=1S/C3H2N4O2/c4-2-1-5-3(8)6-7-9-2/h1,4H	InChI=1S/C3H3N2O2.N2/c4-2-1-5-3(6)7-2;1-2/h1,4H,(H,5,6);
