11
gdb 23696	3.91842	1.97036	1.31109	1.0023	55.08	-0.2541	-0.0506	0.2035	812.7551	0.074087	-438.758027	-438.752181	-438.751237	-438.788183	21.909	
F	 0.0591221661	 0.0536066161	 0.0031762626	-0.049117
C	-0.0656530655	 1.3659511931	 0.0113144164	 0.434215
N	-1.2304028294	 1.8986019497	 0.0296550917	-0.356048
C	-1.228134501	 3.275562922	 0.036441229	 0.016686
C	-0.1143170599	 4.0522945154	 0.0252645933	-0.23369
C	 1.2021206005	 3.4476798775	 0.004473092	 0.425808
O	 2.2891059562	 3.9821840688	-0.0074543507	-0.370242
N	 1.1101968276	 2.0230009822	-0.0012918042	-0.411349
H	-2.2153115145	 3.7269593759	 0.0520036436	 0.134339
H	-0.1680594949	 5.1325106363	 0.0313599239	 0.128406
H	 1.9823906448	 1.5094915329	-0.0155804274	 0.280994
169.3405	218.4403	362.479	427.4681	524.8297	531.7727	576.9776	670.2048	734.4848	774.4112	776.0277	856.7832	947.2977	1009.7633	1013.3611	1106.7464	1200.3272	1270.2084	1308.7335	1430.8162	1501.5484	1597.9103	1681.459	1818.1421	3183.3258	3233.6994	3593.9613
FC1=NC=CC(=O)N1	Fc1nccc(=O)[nH]1	
InChI=1S/C4H3FN2O/c5-4-6-2-1-3(8)7-4/h1-2H,(H,6,7,8)	InChI=1S/C4H3FN2O/c5-4-6-2-1-3(8)7-4/h1-2H,(H,6,7,8)
