11
gdb 130617	3.17301	1.52743	1.03108	0.9106	70.03	-0.2703	-0.1018	0.1685	1028.963	0.063796	-451.444182	-451.436924	-451.43598	-451.476237	26.563	
O	-0.0281324578	-0.0205241896	-0.2632918941	-0.31536
C	-0.0227893765	 1.173720981	-0.0478965347	 0.270392
C	-1.2253672919	 1.9613369185	 0.2214164888	-0.027739
N	-1.2416521708	 3.2269805809	 0.4522023665	-0.032096
O	-0.0409026163	 3.8966762775	 0.4469162303	-0.208441
N	 1.1650520202	 3.2960508778	 0.2112212482	-0.10875
C	 1.1961293222	 2.0155499828	-0.0237878955	 0.08005
C	 2.4657984181	 1.4266261689	-0.2641496743	 0.289044
C	 3.520754268	 0.8894362039	-0.4724991225	-0.334782
H	-2.1928581297	 1.4671882863	 0.2339254459	 0.168181
H	 4.4560798545	 0.419282902	-0.6560271086	 0.219501
86.4779	136.3022	196.6032	370.0451	372.1505	443.187	447.8296	560.6137	570.9292	601.0908	665.6597	677.0016	694.8158	809.65	815.6605	904.7363	948.9821	973.473	1175.656	1299.5776	1366.7171	1551.1495	1632.8788	1779.0596	2239.6535	3185.0955	3498.299
O=C1C=NON=C1C#C	O=c1cnonc1C#C	
InChI=1S/C5H2N2O2/c1-2-4-5(8)3-6-9-7-4/h1,3H	InChI=1S/C5H2N2O2/c1-2-4-5(8)3-6-9-7-4/h1,3H
