11
gdb 130785	3.28022	1.54504	1.05032	3.1223	70.81	-0.2746	-0.1244	0.1502	1014.2452	0.064619	-451.497453	-451.490239	-451.489294	-451.529557	26.113	
O	 0.0393519707	 0.011946442	 0.3906192995	-0.298616
C	 0.0326379378	 1.1587666183	 0.050996655	 0.419936
O	-1.150678656	 1.7464703653	-0.3350441348	-0.243942
N	-1.2368298579	 3.0730080285	-0.7427796203	-0.042438
C	-0.1295127461	 3.7329385625	-0.739556699	 0.091335
N	 1.1270413095	 3.298618093	-0.3861448809	-0.29417
C	 1.217794252	 2.0622437792	-0.0043107541	 0.012825
C	 2.4647952355	 1.5082206082	 0.382764541	 0.284758
C	 3.5144109554	 1.022079889	 0.7143866257	-0.312406
H	-0.2172510961	 4.7652549269	-1.0605485347	 0.158864
H	 4.4417621251	 0.592225997	 1.0073095725	 0.223854
79.0685	141.8409	181.0629	313.236	384.4504	481.9803	484.8435	551.0603	586.0619	605.7738	662.2083	692.2548	711.5619	823.2358	899.3227	949.9783	962.548	1062.6525	1175.6903	1296.3727	1354.4282	1553.6607	1627.8031	1851.7321	2230.4548	3206.7476	3494.2446
O=C1ON=CN=C1C#C	O=c1oncnc1C#C	
InChI=1S/C5H2N2O2/c1-2-4-5(8)9-7-3-6-4/h1,3H	InChI=1S/C5H2N2O2/c1-2-4-5(8)9-7-3-6-4/h1,3H
