11
gdb 25372	4.2609	1.07418	0.8579	4.0912	70.8	-0.2883	-0.11	0.1784	1202.977	0.066345	-451.586383	-451.579259	-451.578315	-451.618613	24.739	
O	 0.0741288311	-0.0894837245	-0.0021155351	-0.249013
C	 0.0280233794	 1.1158953231	 0.0084917777	 0.066842
C	 1.1978727487	 1.9934480168	 0.0020978955	 0.236928
C	 1.3373304304	 3.3555763904	 0.0118787254	-0.14742
N	 2.6700446773	 3.6822178863	-0.0010660643	-0.284934
C	 3.2734246996	 2.5249089183	-0.0177763335	 0.302711
O	 2.4521419945	 1.4553755261	-0.0171114976	-0.167732
C	 4.6734184389	 2.2874469672	-0.0362157951	 0.282303
N	 5.8134914795	 2.0960030356	-0.0512165878	-0.304821
H	-0.9283340856	 1.6785757585	 0.0244044456	 0.102647
H	 0.5666934762	 4.1107350722	 0.0272332293	 0.162487
123.5542	127.5712	153.536	226.5215	303.3943	484.04	497.3913	556.5777	606.3893	655.1344	753.4062	787.3315	895.0301	998.3985	1009.0914	1019.095	1172.841	1231.063	1275.1371	1360.4497	1423.4844	1523.3838	1587.6487	1798.4362	2365.4839	2920.8168	3266.8446
O=CC1=CN=C(O1)C#N	O=Cc1cnc(o1)C#N	
InChI=1S/C5H2N2O2/c6-1-5-7-2-4(3-8)9-5/h2-3H	InChI=1S/C5H2N2O2/c6-1-5-7-2-4(3-8)9-5/h2-3H
