11
gdb 5018	3.36815	2.5412	1.44841	3.5762	56.73	-0.2405	-0.0677	0.1728	763.8581	0.07339	-434.586369	-434.580327	-434.579383	-434.616654	22.663	
O	-0.0529305308	 1.2885770677	 0.1594625235	-0.371559
C	 0.0337448977	-0.0381383556	 0.0328952821	 0.28433
N	 1.1721257903	-0.6295589895	-0.0603211273	-0.330434
C	 1.1641162094	-2.0055646204	-0.1883307525	-0.091045
C	 0.0188679531	-2.7034861844	-0.2150919719	 0.044467
O	-1.1888333408	-2.0876392086	-0.1172746153	-0.203228
C	-1.2880733088	-0.7204596049	 0.0135295089	 0.389498
O	-2.3602952236	-0.1964941623	 0.0981830051	-0.311974
H	 0.8554817587	 1.6258062149	 0.1605003413	 0.309941
H	 2.1236686252	-2.4995339414	-0.2664821027	 0.130778
H	-0.0720621205	-3.7764977855	-0.312090481	 0.149226
114.5611	273.4441	327.8032	437.7498	529.6325	538.3356	557.9582	578.2641	602.7689	745.4713	804.9758	808.857	908.2159	925.5644	1035.03	1093.4343	1160.4113	1264.6317	1293.6516	1418.8516	1437.0168	1617.739	1673.4341	1855.0918	3216.8647	3242.944	3751.9883
OC1=NC=COC1=O	Oc1nccoc1=O	
InChI=1S/C4H3NO3/c6-3-4(7)8-2-1-5-3/h1-2H,(H,5,6)	InChI=1S/C4H3NO3/c6-3-4(7)8-2-1-5-3/h1-2H,(H,5,6)
