11
gdb 20696	4.08746	2.01546	1.36116	4.2089	55.58	-0.2832	-0.1253	0.1579	820.93	0.070059	-430.695818	-430.688867	-430.687923	-430.727943	23.98	
C	-0.0118798665	 1.4913987153	-0.0219164048	-0.457725
C	-0.0607288961	 0.0029653825	 0.0134186175	 0.385745
N	-1.1296136786	-0.6509295753	-0.2529149069	-0.309873
C	-1.0839630878	-2.0442544213	-0.1953043764	 0.476177
O	-2.0039010746	-2.7659640158	-0.4200246926	-0.304459
O	 0.1381367872	-2.6184629407	 0.1531960766	-0.237363
N	 1.2797880503	-1.8257718201	 0.4343249369	 0.090792
N	 1.1806584153	-0.5989618634	 0.3671055784	-0.143843
H	 0.7510208086	 1.8181251668	-0.7368685936	 0.167592
H	-0.9849954005	 1.895065571	-0.2970207164	 0.165365
H	 0.2948174027	 1.8733734009	 0.9578599714	 0.16759
39.1805	137.4585	178.9747	315.3351	385.4198	438.226	533.4812	571.0683	655.1677	707.529	765.1449	807.8358	882.981	958.5878	1057.0485	1057.1279	1150.7821	1273.9788	1407.1288	1458.1597	1466.0217	1591.9775	1699.5464	1889.3247	3046.8489	3103.4721	3174.651
CC1=NC(=O)ON=N1	Cc1nc(=O)onn1	
InChI=1S/C3H3N3O2/c1-2-4-3(7)8-6-5-2/h1H3	InChI=1S/C3H3N3O2/c1-2-4-3(7)8-6-5-2/h1H3
