11
gdb 130577	3.83682	1.33671	0.99134	2.4105	64.11	-0.3123	-0.1153	0.197	1056.9627	0.067487	-447.761578	-447.754574	-447.75363	-447.79381	24.185	
O	 0.035612821	-0.0434948209	 0.0040320525	-0.279543
C	-0.0220425475	 1.1560139068	 0.0075202543	 0.382488
C	 1.1648957945	 2.0131514111	 0.0012911858	 0.266913
N	 2.1619517138	 2.5959251677	-0.004305711	-0.300776
N	-1.2332546039	 1.8566344271	 0.0180516257	-0.055239
C	-2.5040206865	 1.3372871158	 0.0258331422	 0.060069
N	-3.3776676974	 2.306077791	 0.0346729943	-0.264453
C	-2.5901337852	 3.4370595271	 0.0319068161	 0.059317
N	-1.2964115195	 3.2233270668	 0.0220890789	-0.219192
H	-2.6916351506	 0.2753356209	 0.024420402	 0.191279
H	-3.0010174788	 4.4354041765	 0.0374787791	 0.159137
79.1209	136.9219	160.1644	258.0037	312.9434	473.3039	507.0124	637.6154	680.0053	688.0784	767.9548	893.3625	933.477	957.4618	972.2964	1061.1089	1142.1732	1238.6587	1254.602	1311.6929	1412.7712	1449.4046	1571.5119	1811.5975	2358.7526	3268.9369	3284.317
O=C(C#N)N1C=NC=N1	O=C(C#N)n1cncn1	
InChI=1S/C4H2N4O/c5-1-4(9)8-3-6-2-7-8/h2-3H	InChI=1S/C4H2N4O/c5-1-4(9)8-3-6-2-7-8/h2-3H
