11
gdb 129316	2.79192	1.71094	1.32503	1.1289	62.06	-0.2845	-0.1288	0.1556	907.839	0.063457	-484.787664	-484.780327	-484.779383	-484.820038	26.254	
N	-0.1574719822	 1.3356390772	 0.0725582388	-0.450568
C	-0.0312824724	 0.0906860064	-0.0249238655	 0.409862
O	 1.2231946038	-0.5292098596	-0.0418897844	-0.264413
N	 1.6172883709	-1.53043694	-1.0160779391	 0.062021
N	 0.8736710397	-1.8610789894	-1.9225212992	-0.088734
C	-0.5206822958	-1.5500184805	-2.147377027	 0.36728
O	-0.9419899638	-1.3974688618	-3.2555494052	-0.255387
C	-1.3683851588	-1.5637347351	-0.9052361776	-0.051534
N	-1.1343236666	-0.7769368056	 0.0610598289	-0.155009
H	 0.7471961676	 1.7998969962	-0.009950468	 0.254291
H	-2.2356577124	-2.2230281377	-0.8797721517	 0.172191
73.5764	95.1069	225.8472	305.2272	359.9818	388.5394	428.3777	558.0902	602.8233	660.5087	696.8987	712.8037	797.9343	836.322	882.6687	922.7478	936.732	995.0044	1133.511	1240.0182	1362.4157	1660.0097	1717.8844	1765.629	1845.8244	3143.9864	3506.1044
N=C1ON=NC(=O)C=N1	[NH][C]1ON=NC(=O)C=N1	
InChI=1S/C3H2N4O2/c4-3-5-1-2(8)6-7-9-3/h1,4H	InChI=1S/C3H2N4O2/c4-3-5-1-2(8)6-7-9-3/h1,4H
