10
gdb 132084	2.44262	1.87658	1.06125	2.5617	53.45	-0.2686	-0.0789	0.1897	957.9133	0.052893	-557.852936	-557.846258	-557.845314	-557.884461	24.103	
F	 0.0496117405	 0.0469169397	 0.0027914247	-0.022851
C	-0.0138752154	 1.3593767624	 0.010496286	 0.230662
C	-1.2136264468	 1.9928325597	 0.0304508481	-0.045078
F	-2.3621332979	 1.3359027071	 0.0430161884	-0.028831
C	-1.2759898777	 3.4370982961	 0.0387513653	 0.369299
O	-2.2338515795	 4.1463357524	 0.0558213172	-0.314384
O	 0.0194550429	 4.0319510399	 0.0239169329	-0.197002
C	 1.1240222614	 3.2877406354	 0.0047185483	 0.147154
N	 1.1807960605	 2.0062870885	-0.002743163	-0.310277
H	 2.025508652	 3.8913019388	-0.0046715279	 0.171308
115.9769	188.8968	273.1063	312.3616	354.4782	497.3181	510.644	530.1419	591.6464	695.9081	701.4245	752.2908	874.8818	936.0497	957.0213	1167.2462	1183.3795	1331.8999	1382.6569	1436.4391	1630.7264	1696.0543	1888.5116	3208.4196
FC1=C(F)C(=O)OC=N1	Fc1c(F)c(=O)ocn1	
InChI=1S/C4HF2NO2/c5-2-3(6)7-1-9-4(2)8/h1H	InChI=1S/C4HF2NO2/c5-2-3(6)7-1-9-4(2)8/h1H
