11
gdb 8997	7.30964	1.00091	0.9153	2.7614	54.42	-0.301	-0.1128	0.1882	1137.2067	0.069429	-434.561192	-434.553231	-434.552287	-434.59475	25.746	
O	 0.1865429632	 0.1046064422	-0.0927164382	-0.250156
C	 0.3200093439	 1.2779639296	-0.2245982045	 0.189281
O	 0.6375429724	 2.0889398633	 0.8225348101	-0.164534
C	 0.8318708303	 3.4532921005	 0.542913537	-0.204872
C	 2.1747043663	 3.711161487	-0.132977819	 0.285675
O	 2.8754493954	 2.8508680389	-0.5918595061	-0.236686
C	 2.538238521	 5.1387326128	-0.2108079687	 0.229456
N	 2.7879209928	 6.2666331119	-0.2589518143	-0.275958
H	 0.181856906	 1.8325928617	-1.1713284589	 0.090183
H	 0.042862792	 3.8716739467	-0.1014874997	 0.16019
H	 0.7889190967	 3.9924597554	 1.4938603723	 0.177421
51.1717	76.0573	145.4077	165.4496	262.5541	286.5829	346.4822	451.4048	563.8688	595.7573	677.4163	843.2987	982.6602	1032.117	1067.3971	1078.208	1174.2305	1288.7323	1384.6845	1425.3162	1460.3021	1816.4385	1889.5355	2339.5642	2967.8487	3003.9065	3099.3574
O=COCC(=O)C#N	O=COCC(=O)C#N	
InChI=1S/C4H3NO3/c5-1-4(7)2-8-3-6/h3H,2H2	InChI=1S/C4H3NO3/c5-1-4(7)2-8-3-6/h3H,2H2
