10
gdb 21906	7.5093	1.38616	1.17016	3.149	58.81	-0.2662	-0.066	0.2002	910.9557	0.060241	-413.423301	-413.416894	-413.41595	-413.453885	23.389	
O	 0.1166078702	 1.3049193074	-0.0818761088	-0.40312
C	 0.065487846	-0.0237924568	-0.0665925193	 0.410542
N	-0.0539224898	-0.7198272408	-1.1724155436	-0.170922
O	-0.0664048509	-2.0376738032	-0.6971377438	-0.197519
C	 0.047306139	-1.9717950362	 0.6380562727	 0.283514
N	 0.1331186046	-0.7503069194	 1.0916049101	-0.393503
C	 0.060496986	-3.1780802922	 1.3693691105	 0.259271
C	 0.0706559387	-4.2115977681	 1.9822210997	-0.32933
H	 0.2042852268	 1.5991228059	 0.8333388289	 0.32278
H	 0.0800647995	-5.1235130867	 2.5282992137	 0.218289
140.7603	151.5436	323.2215	406.3325	407.2821	451.7342	557.3782	588.3064	660.5107	696.2319	722.9415	768.3104	784.708	948.8601	1037.5239	1077.7959	1213.3742	1280.5411	1436.0439	1574.4315	1654.6253	2252.4331	3497.2333	3810.5826
OC1=NOC(=N1)C#C	Oc1noc(n1)C#C	
InChI=1S/C4H2N2O2/c1-2-3-5-4(7)6-8-3/h1H,(H,6,7)	InChI=1S/C4H2N2O2/c1-2-3-5-4(7)6-8-3/h1H,(H,6,7)
