11
gdb 131030	2.36589	1.75834	1.00868	1.0761	66.13	-0.3115	-0.1072	0.2044	1039.4502	0.067271	-447.762843	-447.755807	-447.754863	-447.794901	24.412	
O	-0.0587950735	-0.0214998221	-0.0005221098	-0.220741
C	-0.0181360416	 1.1683250347	 0.0084350402	 0.186343
N	 1.1951976277	 1.9124556372	 0.0002945597	-0.104876
N	 2.4200865286	 1.3342003403	-0.0176398326	-0.181756
C	 3.2324956595	 2.3720001033	-0.019226695	 0.044279
N	 2.6243548939	 3.5971065007	-0.0034036651	-0.299515
C	 1.3488100654	 3.2812090294	 0.0086341825	 0.325989
C	 0.2532540236	 4.186660092	 0.0275752603	 0.256801
N	-0.6631176526	 4.8921567055	 0.0430117712	-0.318309
H	-0.8888096702	 1.8435455065	 0.0225562751	 0.150034
H	 4.3055166391	 2.2537022524	-0.0321348167	 0.161752
131.4582	135.3391	164.5467	253.7424	268.6918	458.5765	498.3433	576.8851	628.8318	677.5747	745.4706	835.0193	931.0481	973.4156	1028.2443	1115.7312	1187.3694	1303.1106	1312.6778	1345.249	1442.4067	1445.6908	1552.3165	1863.3207	2359.8457	3023.4631	3270.3991
O=CN1N=CN=C1C#N	O=Cn1ncnc1C#N	
InChI=1S/C4H2N4O/c5-1-4-6-2-7-8(4)3-9/h2-3H	InChI=1S/C4H2N4O/c5-1-4-6-2-7-8(4)3-9/h2-3H
