11
gdb 23800	4.00341	1.86485	1.27223	2.2867	56.01	-0.2503	-0.0691	0.1811	830.4303	0.073566	-438.719817	-438.713897	-438.712953	-438.75003	22.239	
F	 0.0426640861	 0.0341524535	 0.0026860103	-0.058572
C	-0.028386192	 1.3598626735	 0.010894139	 0.315078
C	-1.218210679	 2.0025025716	 0.0303892476	-0.374728
C	-1.2359990398	 3.4547741732	 0.038540782	 0.44909
O	-2.209913522	 4.1816937652	 0.0556905712	-0.384809
N	 0.0628857655	 4.005727135	 0.0241692925	-0.257607
N	 1.2364641323	 3.3766763867	 0.0049650055	-0.162194
C	 1.2068154785	 2.0754060169	-0.0017859991	-0.100482
H	-2.1625269728	 1.4747543383	 0.0402016711	 0.14639
H	 0.114243539	 5.0163986452	 0.0290489197	 0.281189
H	 2.1546661443	 1.5519723208	-0.0173855197	 0.146646
172.2109	220.2045	352.4236	441.7977	492.7181	503.1996	556.3808	670.0551	735.0207	745.7896	747.562	882.554	900.4431	945.9263	1026.4061	1161.2117	1214.0145	1230.9878	1325.5472	1431.2356	1446.2393	1583.5392	1667.9357	1798.1827	3215.1113	3232.3471	3592.7412
FC1=CC(=O)NN=C1	Fc1cc(=O)[nH]nc1	
InChI=1S/C4H3FN2O/c5-3-1-4(8)7-6-2-3/h1-2H,(H,7,8)	InChI=1S/C4H3FN2O/c5-3-1-4(8)7-6-2-3/h1-2H,(H,7,8)
