11
gdb 129025	3.7376	1.21562	0.91729	3.2113	74.39	-0.2687	-0.1131	0.1555	1131.3597	0.063652	-447.680963	-447.672943	-447.671999	-447.715017	27.339	
N	-0.0445919627	 1.3419041731	 0.1509617619	-0.486269
C	-0.0845137835	 0.0862645181	-0.0190215266	 0.390753
C	-1.2417330575	-0.7504182426	-0.0677363848	-0.259558
C	-1.1377454375	-2.0960687767	-0.2576984958	 0.321444
O	-0.0225811321	-2.7726838667	-0.4134694357	-0.331567
N	 1.361978841	-1.8101545938	-0.3610725827	 0.047357
N	 1.1760004217	-0.6619423212	-0.1934433894	-0.046056
C	-2.3263873766	-2.9114707578	-0.3018670448	 0.258874
N	-3.2799471389	-3.5647951141	-0.337161441	-0.304067
H	 0.9134346168	 1.6916981225	 0.1442423373	 0.249225
H	-2.2112527208	-0.2899256308	 0.0502320816	 0.159865
42.9306	58.3734	128.3579	190.2824	359.8634	382.6917	413.3675	428.8664	548.0642	589.055	688.3378	692.8005	731.1177	805.4522	836.8907	889.6116	969.7065	1084.3611	1164.5867	1255.6616	1400.6478	1592.9994	1730.4966	1854.4782	2350.4929	3251.9352	3498.7837
N=C1C=C(ON=N1)C#N	[NH]C1=N[N]OC(=C1)C#N	
InChI=1S/C4H2N4O/c5-2-3-1-4(6)7-8-9-3/h1,6H	InChI=1S/C4H2N4O/c5-2-3-1-4(6)7-8-9-3/h1,6H
