9
gdb 132345	2.06402	1.58585	0.89681	1.5194	50.23	-0.3104	-0.0915	0.2189	1089.5278	0.039955	-573.94274	-573.935183	-573.934239	-573.976624	24.796	
F	-0.2677044364	-0.069320594	 0.0059845812	-0.046648
C	 0.0023863001	 1.2257211528	 0.0095873271	 0.415688
N	-1.1691576958	 1.9460728763	 0.029626209	-0.408827
C	-1.1206054293	 3.2232984574	 0.0359790135	 0.423414
F	-2.2706646017	 3.8512743619	 0.05526243	-0.022429
N	-0.1033455119	 4.1135480528	 0.026978007	-0.411401
C	 1.1249055358	 4.0269153649	 0.0097326683	 0.604027
O	 2.2617026169	 4.2248875324	-0.0046615387	-0.219225
O	 1.1428880724	 1.6059501355	-0.0041012775	-0.3346
35.6447	106.5471	142.0145	193.3463	266.4691	422.8102	454.0986	557.5387	585.1149	628.0822	722.9726	742.8458	811.0363	870.1823	1041.1981	1252.2378	1342.7598	1531.609	1672.8732	1812.9518	2345.7978
FC1=NC(F)=NC(=O)O1	FC(=O)[N]C(=[N]=C=O)F	
InChI=1S/C3F2N2O2/c4-1-6-2(5)9-3(8)7-1	InChI=1S/C3F2N2O2/c4-2(6-1-8)7-3(5)9
