11
gdb 23623	4.06246	1.85262	1.27237	3.2703	55.15	-0.2454	-0.0422	0.2032	833.1428	0.072606	-442.545613	-442.53967	-442.538726	-442.575884	22.239	
F	 0.0946973431	 0.0602893967	 0.0020344478	-0.03357
C	-0.0542779824	 1.3630568783	 0.0111182106	 0.415018
C	-1.2375293228	 1.9922147114	 0.0306656443	-0.459954
C	-1.2833340228	 3.4573795615	 0.0391095025	 0.399878
O	-2.3167904581	 4.1052828485	 0.0570238628	-0.36996
C	 0.0584783492	 4.0703648183	 0.0242906992	-0.259675
C	 1.1654802413	 3.3206796425	 0.0051079825	 0.07744
O	 1.1450152142	 1.954078699	-0.0020619105	-0.199893
H	-2.1552434972	 1.4205357161	 0.0401332775	 0.139377
H	 0.134905974	 5.1502612338	 0.0291908562	 0.13383
H	 2.1841533716	 3.683456124	-0.0067687527	 0.157509
161.5934	207.5523	369.4391	414.4296	488.1014	521.8622	545.5817	672.0121	730.4756	763.9513	840.6869	877.7871	935.909	950.6396	964.9981	1056.5799	1209.3297	1250.7532	1275.94	1399.7316	1415.8702	1641.9112	1717.6116	1759.5984	3219.2782	3235.8644	3242.8995
FC1=CC(=O)C=CO1	Fc1cc(=O)cco1	
InChI=1S/C5H3FO2/c6-5-3-4(7)1-2-8-5/h1-3H	InChI=1S/C5H3FO2/c6-5-3-4(7)1-2-8-5/h1-3H
