10
gdb 133445	3.26714	1.51026	1.03283	1.7615	53.89	-0.2976	-0.1076	0.19	995.5849	0.05197	-549.823591	-549.816534	-549.81559	-549.856369	24.938	
F	-0.0148177098	 0.0991651859	-0.2762638465	-0.009994
C	-0.0332555359	 1.3848342291	-0.0300278736	 0.220694
N	-1.161580548	 1.9523016436	 0.0947636637	-0.100253
O	-1.1393829478	 3.3164096618	 0.3549394306	-0.270903
C	 0.0294193507	 4.0411638456	 0.476346533	 0.52634
N	 0.0426350797	 5.2669059047	 0.7110651903	-0.505753
O	 1.2127268132	 3.37543974	 0.3319724806	-0.216631
C	 1.2946848025	 2.0373397	 0.0751691826	 0.37481
O	 2.3434514057	 1.489889455	-0.0448077063	-0.277223
H	-0.9003089504	 5.6395798244	 0.7963281556	 0.258914
34.8049	113.1828	313.8986	321.4143	383.8157	399.4641	476.51	527.7699	619.8191	685.5447	698.1956	776.736	805.6028	828.9714	928.6119	995.8222	1065.4818	1208.9984	1272.554	1423.434	1702.2054	1790.0161	1894.7706	3544.3674
FC1=NOC(=N)OC1=O	FC1=NO[C]([NH])OC1=O	
InChI=1S/C3HFN2O3/c4-1-2(7)8-3(5)9-6-1/h5H	InChI=1S/C3HFN2O3/c4-1-2(7)8-3(5)9-6-1/h5H
