11
gdb 131071	5.76608	1.04663	0.88856	1.7747	60.86	-0.2776	-0.1118	0.1658	1163.5913	0.065302	-484.854466	-484.847317	-484.846373	-484.887252	24.13	
O	 0.0415899764	-0.0189630609	 0.1299310399	-0.22239
C	-0.0304872943	 1.1497653835	-0.0459951616	 0.179634
O	 1.1045772698	 1.9431491524	 0.132171196	-0.218496
C	 1.0165752153	 3.2835889948	 0.0879432185	 0.543513
N	 2.1720254021	 3.9200380651	-0.0467977893	-0.264943
C	 2.023885698	 5.2358048941	-0.0486849868	 0.123882
N	 0.8606040775	 5.8968645059	 0.0457841381	-0.168452
N	-0.2379265439	 5.1809582526	 0.1657422249	-0.037202
N	-0.183648842	 3.8620419211	 0.2055425945	-0.260327
H	-0.9056430397	 1.7275769433	-0.3621030654	 0.159519
H	 2.9166186807	 5.848084678	-0.1399830786	 0.165262
65.0511	86.014	167.5307	218.3953	334.86	430.9065	506.0768	581.4763	698.1614	727.9855	859.5262	936.4357	998.1381	1012.6018	1028.4744	1040.5541	1044.0296	1156.7356	1290.456	1365.0543	1389.193	1439.3276	1541.7288	1565.7763	1892.0576	3100.1029	3187.5263
O=COC1=NC=NN=N1	O=COc1ncnnn1	
InChI=1S/C3H2N4O2/c8-2-9-3-4-1-5-7-6-3/h1-2H	InChI=1S/C3H2N4O2/c8-2-9-3-4-1-5-7-6-3/h1-2H
