11
gdb 132678	3.14944	1.34578	0.94288	2.9602	56.28	-0.2577	-0.0445	0.2132	1055.8218	0.064725	-545.957395	-545.950868	-545.949923	-545.988652	24.583	
F	 0.0309103769	 0.0560628729	 0.0030667428	-0.064237
C	-0.0176676379	 1.3815169783	 0.0105030544	 0.350106
C	-1.2532936809	 2.0134232306	 0.0307774126	-0.266564
C	-1.2499338835	 3.4059395463	 0.0378578819	-0.18585
C	-0.037276189	 4.0727112731	 0.0245522493	 0.120857
F	 0.0276100189	 5.4014243192	 0.0304568932	-0.054703
C	 1.1330001619	 3.3142496366	 0.004543746	 0.23137
F	 2.2989033536	 3.9384787731	-0.0083319966	-0.044383
N	 1.1457367985	 2.0024231231	-0.0023490827	-0.360409
H	-2.168544622	 1.4370260115	 0.0404532105	 0.131797
H	-2.1707787664	 3.9768121952	 0.0534759285	 0.142017
141.2336	248.5979	288.5572	359.2132	387.7441	479.5497	484.0732	544.0308	601.0099	680.5948	745.958	757.0869	809.7497	846.5351	961.9795	1014.5853	1111.9771	1225.6031	1279.8019	1334.2435	1371.0153	1477.5296	1522.1395	1642.7045	1656.9262	3209.6122	3229.0774
FC1=CC=C(F)C(F)=N1	Fc1ccc(F)c(F)n1	
InChI=1S/C5H2F3N/c6-3-1-2-4(7)9-5(3)8/h1-2H	InChI=1S/C5H2F3N/c6-3-1-2-4(7)9-5(3)8/h1-2H
