11
gdb 5421	4.10352	2.06493	1.37368	5.9388	54.08	-0.2471	-0.0415	0.2056	796.6854	0.072411	-434.597566	-434.591189	-434.590245	-434.6284	22.716	
O	-0.1650141491	-0.0153801206	 0.0021564562	-0.248565
C	-0.061879366	 1.1767537483	 0.0095788277	 0.170571
N	 1.1436120162	 1.8874321482	 0.0021192666	-0.182827
C	 1.2553631528	 3.2894110849	 0.0115393213	-0.118322
C	 2.5574034394	 3.5718536431	-0.0000206154	-0.021722
O	 3.3026960823	 2.4146745334	-0.0164487468	-0.217017
C	 2.4448762533	 1.3314388098	-0.0158123639	 0.522771
O	 2.7918625361	 0.1942561129	-0.0277577862	-0.340762
H	-0.9191958635	 1.8767487729	 0.0244071512	 0.099916
H	 0.3910646061	 3.9309484212	 0.0254748095	 0.16698
H	 3.1031008025	 4.4989645061	 0.0012671699	 0.168978
108.0122	207.7722	220.5623	257.9699	488.3365	511.7778	583.328	707.9346	752.0582	777.8894	798.8596	814.1439	888.7302	1022.6078	1024.307	1101.6009	1153.0126	1243.9829	1286.9975	1407.4463	1446.3777	1672.1439	1828.8386	1933.8836	2953.1037	3283.319	3309.5428
O=CN1C=COC1=O	O=Cn1ccoc1=O	
InChI=1S/C4H3NO3/c6-3-5-1-2-8-4(5)7/h1-3H	InChI=1S/C4H3NO3/c6-3-5-1-2-8-4(5)7/h1-3H
