11
gdb 130847	2.38207	1.58814	0.95286	3.8432	70.3	-0.2797	-0.1118	0.1679	1099.4561	0.063661	-451.489623	-451.482118	-451.481173	-451.522104	26.569	
O	-0.0369462322	-0.090194394	-0.0016250392	-0.235432
C	-0.0348887996	 1.1146024314	 0.009189445	 0.061046
C	 1.1867364106	 1.9384962112	 0.0024941827	 0.213625
C	 1.3444998189	 3.3036230521	 0.0129708765	 0.102925
N	 2.7134845057	 3.5328816328	-0.0005384588	-0.182511
N	 3.3360868328	 2.4429051174	-0.0178957189	 0.017225
O	 2.3941582507	 1.3779060982	-0.0166917058	-0.188542
C	 0.3823369291	 4.3300689154	 0.0334848924	 0.280111
C	-0.4417747057	 5.2062242828	 0.0511423284	-0.403248
H	-0.962247658	 1.7194407784	 0.0255968246	 0.115974
H	-1.1673939423	 5.9828138741	 0.0670201631	 0.218826
116.1892	123.6889	171.3569	214.0688	268.1283	422.5003	478.9565	580.2245	595.2522	630.5662	658.5832	671.7729	697.9839	756.7694	817.499	1013.3859	1023.13	1133.8314	1228.8067	1382.6498	1417.997	1464.2993	1588.3258	1798.9258	2244.1512	2950.0102	3494.7923
O=CC1=C(N=NO1)C#C	O=Cc1c(nno1)C#C	
InChI=1S/C5H2N2O2/c1-2-4-5(3-8)9-7-6-4/h1,3H	InChI=1S/C5H2N2O2/c1-2-4-5(3-8)9-7-6-4/h1,3H
