10
gdb 5471	3.76332	1.99376	1.30329	4.6532	57.41	-0.2514	-0.0516	0.1997	821.5823	0.062123	-413.499938	-413.493744	-413.492799	-413.530493	22.256	
O	 0.1289343509	 1.3651312602	 0.0424305562	-0.398453
C	 0.0810680328	 0.0369742886	-0.0209445604	 0.267585
C	 0.0132099714	-0.7446845964	-1.145351293	 0.14343
O	-0.0157505426	-2.0589786737	-0.7028291903	-0.163326
C	 0.0360606394	-1.9671204817	 0.6280393916	 0.091626
N	 0.0947087138	-0.7572758896	 1.098990382	-0.329453
C	-0.0276785889	-0.4737647826	-2.5196212923	 0.236491
N	-0.0607502974	-0.2313771941	-3.6529062501	-0.343149
H	 0.1714515154	 1.6120677202	 0.9755633809	 0.320672
H	 0.0246480452	-2.891610601	 1.1841260754	 0.174577
148.766	159.1758	319.7079	387.8537	414.4759	520.54	548.7588	616.8942	646.1746	746.7952	752.0739	867.5012	955.8018	1076.6031	1180.5252	1200.4223	1316.2073	1325.5309	1431.587	1542.9968	1698.2483	2338.9225	3278.794	3794.4383
OC1=C(OC=N1)C#N	Oc1c(ocn1)C#N	
InChI=1S/C4H2N2O2/c5-1-3-4(7)6-2-8-3/h2,7H	InChI=1S/C4H2N2O2/c5-1-3-4(7)6-2-8-3/h2,7H
