11
gdb 128961	8.01753	0.80475	0.73471	2.1195	57.97	-0.3131	-0.0879	0.2252	1369.2235	0.064968	-484.794439	-484.787058	-484.786114	-484.827631	24.951	
N	 0.0523293218	-1.1225838387	-0.0058390092	-0.270583
C	 0.0427242947	 0.031153373	 0.0017743193	 0.287675
C	-0.0260391736	 1.4895031863	 0.0120318515	-0.215115
O	 1.3156762282	 1.9991460022	 0.0001180936	-0.230476
C	 1.401200853	 3.3194366407	 0.0071998478	 0.538615
N	 0.4136042454	 4.169950624	 0.0236772925	-0.179299
O	 1.0445110412	 5.3794449736	 0.0238409227	-0.155781
N	 2.4154807845	 5.1740064204	 0.0070017637	 0.070741
N	 2.6348390902	 3.936163396	-0.0031053392	-0.218462
H	-0.5735191222	 1.8497847316	-0.8662515162	 0.186347
H	-0.5533842132	 1.838247931	 0.9071337337	 0.186338
45.7517	117.2313	117.8806	236.3071	350.4796	384.8069	437.8767	540.637	654.0846	745.7694	771.6976	800.5444	944.8088	966.6799	1019.3081	1051.4117	1063.6839	1120.9078	1255.7283	1333.1673	1407.4103	1481.6491	1520.4438	1632.0669	2382.5344	3046.0128	3088.7673
N#CCOC1=NON=N1	N#CCOc1nonn1	
InChI=1S/C3H2N4O2/c4-1-2-8-3-5-7-9-6-3/h2H2	InChI=1S/C3H2N4O2/c4-1-2-8-3-5-7-9-6-3/h2H2
