11
gdb 21545	3.58703	2.01029	1.28973	5.2248	61.82	-0.2429	-0.0601	0.1828	843.1489	0.073552	-393.57846	-393.571822	-393.570878	-393.609334	24.145	
N	 0.06930045	 1.4449355355	 0.1712253587	-0.613266
C	 0.0226706079	 0.0757154163	 0.0445990752	 0.090611
C	-1.06645402	-0.7610633441	 0.0075055075	 0.290417
O	-0.6506005117	-2.0612597391	-0.0433809017	-0.21154
N	 0.7174669322	-2.0836271143	-0.0489941925	-0.105749
C	 1.1178871854	-0.8376126938	 0.005592864	-0.011097
C	-2.4425856784	-0.4732537064	 0.0093759566	 0.216431
N	-3.5631391654	-0.1742605863	 0.007260898	-0.34016
H	 0.8796680668	 1.8935114992	-0.2282832507	 0.266624
H	-0.7878155912	 1.9321518117	-0.0478402744	 0.273874
H	 2.1757429245	-0.6160384086	 0.0174320693	 0.143855
135.2653	161.3241	282.9354	324.2701	357.7506	499.7294	530.196	572.5666	615.5303	641.5325	718.9952	730.913	882.722	951.5902	997.1497	1061.0788	1201.5804	1237.0351	1263.1075	1472.4005	1498.4135	1644.1623	1684.2412	2331.8291	3246.2573	3571.0586	3671.8219
NC1=C(ON=C1)C#N	Nc1c(onc1)C#N	
InChI=1S/C4H3N3O/c5-1-4-3(6)2-7-8-4/h2H,6H2	InChI=1S/C4H3N3O/c5-1-4-3(6)2-7-8-4/h2H,6H2
