8
gdb 21763	5.70687	2.37361	1.67637	0.0001	48.18	-0.298	-0.1206	0.1774	638.9117	0.036644	-445.469261	-445.464068	-445.463124	-445.498474	18.898	
O	-0.1674517086	 1.2795007975	 0.0105327369	-0.229283
N	 1.2536079876	 1.7966119622	-0.0003921319	 0.015503
N	 2.0515018685	 0.8256614881	-0.0129792764	-0.184421
C	 1.3388461585	-0.3334225837	-0.012426567	 0.3982
C	 0.01475397	-0.0221776922	 0.0017967479	 0.398201
N	-0.6979010021	-1.1812617774	 0.002385423	-0.184419
N	 0.0999903579	-2.1522112752	-0.0104087172	 0.015504
O	 1.5210524283	-1.6351013891	-0.0210907454	-0.229285
246.1426	346.5878	371.3636	418.5822	542.36	637.4569	642.4536	704.2653	779.8234	780.665	948.7604	1012.7223	1256.1105	1401.6345	1427.5661	1474.3646	1524.5089	1569.5392
O1N=NC2=C1N=NO2	o1nnc2c1nno2	
InChI=1S/C2N4O2/c3-1-2(8-5-3)4-6-7-1	InChI=1S/C2N4O2/c3-1-2(8-5-3)4-6-7-1
