11
gdb 23998	5.09476	0.99842	0.83482	4.0603	76.64	-0.2745	-0.0909	0.1836	1230.1235	0.06729	-414.457973	-414.450939	-414.449995	-414.489919	25.138	
N	 0.1944338027	-1.0850453751	-0.0053287903	-0.315142
C	 0.075490602	 0.066629906	 0.002297991	 0.228951
C	-0.1056679906	 1.4672601966	 0.0120579017	 0.261488
C	-1.2382229217	 2.238753362	 0.0323016409	-0.240597
C	-0.7966643327	 3.5859039158	 0.0328152779	-0.240607
C	 0.5728367353	 3.5373219769	 0.0128606335	 0.261483
O	 1.0074052291	 2.24865859	-0.0000238027	-0.186866
C	 1.5479910785	 4.5589192964	 0.0040355324	 0.228959
N	 2.3256826317	 5.416647741	-0.0027871381	-0.315139
H	-2.2531743945	 1.8760780364	 0.0450699356	 0.158737
H	-1.4000157099	 4.4789964841	 0.0460631681	 0.158734
121.079	123.355	203.7041	212.0659	474.6431	497.5748	497.727	537.6437	600.6546	641.507	673.1425	698.6031	830.6964	893.4863	988.544	991.1127	1050.0989	1220.1282	1248.7442	1260.4819	1388.1785	1524.9564	1603.0876	2350.1387	2350.376	3271.5783	3283.5037
N#CC1=CC=C(O1)C#N	N#Cc1ccc(o1)C#N	
InChI=1S/C6H2N2O/c7-3-5-1-2-6(4-8)9-5/h1-2H	InChI=1S/C6H2N2O/c7-3-5-1-2-6(4-8)9-5/h1-2H
