11
gdb 20775	3.56577	1.98736	1.28631	2.9457	58.53	-0.3207	-0.0869	0.2338	851.6871	0.072021	-393.555885	-393.549089	-393.548145	-393.587344	23.486	
C	-0.0358335099	 1.4875438621	 0.0604564478	-0.507206
C	-0.0129149005	-0.00158257	 0.0327508765	 0.245445
N	-0.0348230161	-0.7013631764	-1.0682838131	-0.112331
O	-0.0022981419	-2.0196343039	-0.6859923494	-0.136509
N	 0.0402078834	-2.153760772	 0.6566962829	-0.134535
C	 0.0347490063	-0.9281608102	 1.1263072062	 0.201866
C	 0.0719351551	-0.635238364	 2.5152996869	 0.261644
N	 0.1005779757	-0.3351226645	 3.6315962438	-0.31402
H	 0.855955777	 1.8779740422	 0.5600156591	 0.163911
H	-0.0731335544	 1.8789568242	-0.9567820257	 0.167828
H	-0.9074640148	 1.8498397324	 0.6138807648	 0.163906
96.7705	138.1173	184.9097	283.2033	327.7283	520.1107	549.7104	584.8514	644.5261	703.6108	748.7117	907.3574	949.2302	1023.4799	1071.1873	1080.7258	1233.052	1392.6897	1422.4463	1477.8942	1478.2387	1502.2533	1606.6456	2366.4302	3052.5112	3112.4229	3154.7202
CC1=NON=C1C#N	Cc1nonc1C#N	
InChI=1S/C4H3N3O/c1-3-4(2-5)7-8-6-3/h1H3	InChI=1S/C4H3N3O/c1-3-4(2-5)7-8-6-3/h1H3
