11
gdb 132483	3.25905	1.40392	0.98123	0.9034	58.31	-0.2483	-0.0624	0.1859	1032.0544	0.065076	-537.956482	-537.949719	-537.948775	-537.988065	25.002	
F	 0.110800762	 0.1020017627	 0.0021429291	-0.030716
C	-0.0626682167	 1.3958868364	 0.0111838613	 0.415163
N	-1.2193708442	 1.9087215285	 0.0298558091	-0.365958
C	-1.247525208	 3.2994740727	 0.0373564863	-0.128186
C	-0.1254324949	 4.0394691667	 0.0255660184	 0.193277
F	-0.1481744952	 5.3623904726	 0.0326473954	-0.041808
C	 1.1896236426	 3.420844807	 0.0041439768	 0.319964
N	 2.2906633518	 4.0288937123	-0.0080246089	-0.515892
O	 1.1236031456	 2.0072325784	-0.0021635089	-0.237567
H	-2.2252868911	 3.765418265	 0.053310453	 0.147932
H	 3.0820794579	 3.3867887077	-0.0222917616	 0.243792
119.4995	156.5809	306.8821	365.7329	390.1133	414.6858	468.0703	524.3719	612.5057	725.4006	747.8635	761.7584	784.6496	848.9075	939.4387	978.7891	1019.0799	1184.9771	1252.1205	1292.5326	1359.2489	1420.6943	1672.3978	1712.6247	1780.9483	3212.8103	3512.2101
FC1=NC=C(F)C(=N)O1	FC1=NCC(=C([NH])O1)F	
InChI=1S/C4H2F2N2O/c5-2-1-8-4(6)9-3(2)7/h1,7H	InChI=1S/C4H3F2N2O/c5-2-1-8-4(6)9-3(2)7/h7H,1H2
