10
gdb 21514	5.50278	1.78973	1.35049	4.9426	49.57	-0.3148	-0.0844	0.2303	796.0292	0.060895	-442.931781	-442.925301	-442.924357	-442.96296	22.373	
N	-0.0627864925	 1.3357858509	 0.0081014124	-0.556699
C	 0.1318772381	 0.0044609048	 0.0006538601	 0.540367
O	 1.1581924218	-0.6081926665	-0.0106561366	-0.309701
N	-1.156512819	-0.7070061728	 0.0085785522	 0.053406
N	-2.3485322534	-0.1114397359	 0.0204597003	-0.114286
N	-3.2097005333	-1.0696952263	 0.0241345807	-0.070361
N	-2.5447757877	-2.2554357889	 0.014101035	-0.066523
N	-1.2739636543	-2.0297654024	 0.0042565104	-0.069994
H	 0.7511608006	 1.926533331	 0.0028530841	 0.29261
H	-0.9873641704	 1.7344059662	 0.0167584413	 0.301182
70.7099	172.7044	229.376	297.3212	413.2086	497.0195	560.9123	662.1931	706.5545	760.0315	765.8078	926.8201	1092.805	1095.5364	1125.659	1171.7991	1250.8017	1291.0031	1370.4876	1410.8983	1606.4831	1906.0004	3603.8651	3741.6819
NC(=O)N1N=NN=N1	NC(=O)n1nnnn1	
InChI=1S/CH2N6O/c2-1(8)7-5-3-4-6-7/h(H2,2,8)	InChI=1S/CH2N6O/c2-1(8)7-5-3-4-6-7/h(H2,2,8)
