11
gdb 9161	8.10511	0.77585	0.71121	4.3077	67.85	-0.2916	-0.1057	0.1859	1424.5879	0.069765	-397.378532	-397.370235	-397.369291	-397.412228	27.207	
O	 0.0411814586	 1.3951628527	 0.0093519557	-0.390567
C	-0.0168191497	-0.0000805379	 0.0022276392	-0.175624
C	-1.4710223166	-0.4405091003	 0.0136507895	 0.216334
O	-2.4162426783	 0.3064964105	 0.026517239	-0.236281
C	-1.6533426192	-1.89138337	 0.0077597193	 0.069792
C	-1.8408590475	-3.0865073904	 0.0033261931	 0.052538
C	-2.0402426791	-4.4368683471	-0.0019980931	 0.219539
N	-2.2032338701	-5.5867725029	-0.0068562686	-0.316315
H	 0.9656776658	 1.6601667994	 0.000080923	 0.302394
H	 0.4522545536	-0.4556820429	-0.8882114545	 0.129104
H	 0.4690809926	-0.465369261	 0.8785428675	 0.129086
70.5317	73.038	130.284	206.3773	214.8606	280.864	312.1086	397.0636	535.3692	551.6736	596.1782	611.0912	761.6261	955.1283	1010.5728	1132.5214	1174.6031	1242.3961	1244.0774	1443.6634	1487.1462	1792.2774	2251.783	2387.7171	2950.1535	2972.0745	3838.0123
OCC(=O)C#CC#N	OCC(=O)C#CC#N	
InChI=1S/C5H3NO2/c6-3-1-2-5(8)4-7/h7H,4H2	InChI=1S/C5H3NO2/c6-3-1-2-5(8)4-7/h7H,4H2
