11
gdb 23975	6.22076	0.95306	0.82645	4.6532	75.89	-0.2612	-0.0725	0.1887	1253.8111	0.065879	-414.409029	-414.40178	-414.400836	-414.441034	26.233	
C	 0.0034209696	-1.1949041864	-0.0032594135	-0.370951
C	-0.0011288083	 0.0074359441	 0.0029651046	 0.205788
C	-0.0227668591	 1.4202990543	 0.0105148364	 0.102154
C	-1.1076473962	 2.2534720642	 0.0303446552	-0.095827
O	-0.6687097109	 3.5325648195	 0.0306031515	-0.151796
C	 0.6878382509	 3.4213372386	 0.0105737438	 0.307506
N	 1.1283735394	 2.2027154891	-0.0019859752	-0.327725
C	 1.4448419629	 4.6216500164	 0.0058662516	 0.260887
N	 2.0563376986	 5.603088005	 0.0021243697	-0.313139
H	 0.0151366195	-2.2570749303	-0.0088679862	 0.204208
H	-2.1724543264	 2.0989558255	 0.0448262822	 0.178895
114.6722	119.5675	207.3112	213.4509	447.9186	487.1785	501.3883	525.5686	592.5231	608.9866	677.2079	683.5032	684.9654	745.1821	810.2208	973.7252	1008.1281	1156.2758	1211.191	1267.6562	1323.7281	1562.5858	1578.1151	2248.9387	2363.5124	3302.3119	3501.5926
C#CC1=COC(=N1)C#N	C#Cc1coc(n1)C#N	
InChI=1S/C6H2N2O/c1-2-5-4-9-6(3-7)8-5/h1,4H	InChI=1S/C6H2N2O/c1-2-5-4-9-6(3-7)8-5/h1,4H
