11
gdb 129304	3.24537	1.54671	1.04749	3.1441	68.55	-0.2864	-0.138	0.1484	1009.3771	0.066128	-447.695411	-447.688323	-447.687379	-447.727583	25.275	
N	-0.0505300461	 1.2334721698	 0.3960046842	-0.496639
C	-0.0258302552	 0.0374721968	-0.0048660402	 0.397087
O	 1.118349516	-0.5715707249	-0.4789124972	-0.269485
N	 1.1238428201	-1.8942875118	-0.9169767531	-0.039157
C	 0.0021524487	-2.5175211687	-0.8549285947	 0.092812
N	-1.2208296381	-2.0401604084	-0.4057203775	-0.300116
C	-1.2252906334	-0.8176373688	-0.0013714729	 0.168892
C	-2.4530888263	-0.2453724513	 0.4814321106	 0.323244
N	-3.4522456941	 0.1915164365	 0.8646815949	-0.296236
H	 0.8644808527	 1.6811943753	 0.3256180794	 0.250772
H	 0.0259638658	-3.5448032045	-1.1999823434	 0.168825
65.3831	158.4282	171.2955	329.3451	370.0389	470.5549	482.4905	539.1857	588.2246	610.8358	722.4763	802.6512	875.419	882.4989	940.7544	945.8348	1011.8386	1149.6032	1179.21	1335.0823	1369.8868	1574.7289	1650.1429	1737.9818	2357.1549	3215.481	3490.3845
N=C1ON=CN=C1C#N	[NH]C1=C([N]C=NO1)C#N	
InChI=1S/C4H2N4O/c5-1-3-4(6)9-8-2-7-3/h2,6H	InChI=1S/C4H2N4O/c5-1-3-4(6)9-8-2-7-3/h2,6H
