11
gdb 131022	5.33321	1.14656	0.94368	4.0389	65.79	-0.2612	-0.1143	0.147	1102.4993	0.065	-484.826645	-484.819559	-484.818615	-484.859132	24.888	
O	-0.1303947245	 0.00218111	 0.0006268693	-0.220948
C	-0.052181162	 1.1887323522	 0.0094015825	 0.216134
N	 1.1870930384	 1.9115618334	 0.0017937824	 0.0211
N	 1.0763922286	 3.2540183216	 0.0137928115	-0.152881
C	 2.1901209828	 3.9052494213	 0.0070199619	-0.052022
C	 3.4943446618	 3.2415576729	-0.0123047141	 0.389359
O	 4.5542142343	 3.8169260846	-0.0191339276	-0.297992
N	 3.4494911803	 1.8033084888	-0.0236449428	-0.204881
N	 2.3483480595	 1.1934351486	-0.0166628094	-0.010016
H	-0.8823130471	 1.9117648243	 0.0240749475	 0.142003
H	 2.138565118	 4.9897320425	 0.0162671787	 0.170146
43.1725	147.9333	223.9605	254.5735	423.25	436.562	475.1162	499.0987	603.9854	673.3646	767.5113	802.9683	812.4322	950.3368	955.7464	1029.9199	1088.2794	1245.0974	1268.8497	1353.0076	1400.5507	1525.8611	1638.1895	1812.5679	1873.7897	3037.1321	3188.6375
O=CN1N=CC(=O)N=N1	O=Cn1ncc(=O)nn1	
InChI=1S/C3H2N4O2/c8-2-7-4-1-3(9)5-6-7/h1-2H	InChI=1S/C3H2N4O2/c8-2-7-4-1-3(9)5-6-7/h1-2H
