10
gdb 21818	3.92848	2.04974	1.34695	2.5208	50.54	-0.2827	-0.0563	0.2264	795.1668	0.061113	-450.643337	-450.637216	-450.636272	-450.674012	21.32	
O	-0.0390066586	-0.0608953455	-0.0003391631	-0.254368
C	-0.0016983105	 1.134257352	 0.0076246188	 0.18513
N	 1.1861482368	 1.8835970706	-0.0001613131	-0.158922
N	 2.4519571024	 1.315052333	-0.0181745218	-0.194893
C	 3.2254767574	 2.3340611924	-0.0191888301	 0.1248
O	 2.6108773301	 3.5454109456	-0.0035595673	-0.198391
C	 1.2461656434	 3.2774928604	 0.0091373894	 0.52747
O	 0.3785272151	 4.0941740874	 0.0248710224	-0.361727
H	-0.869848146	 1.8123065198	 0.0221811674	 0.141838
H	 4.3035381999	 2.3151112544	-0.0310322025	 0.189064
122.6864	208.5847	221.407	304.2442	407.3346	606.9355	639.7347	723.2581	760.9624	833.2631	877.4682	933.2423	999.198	1035.3291	1129.5314	1220.5362	1306.2038	1342.1916	1424.0234	1650.4004	1845.9447	1917.5356	3027.8937	3287.5377
O=CN1N=COC1=O	O=Cn1ncoc1=O	
InChI=1S/C3H2N2O3/c6-2-5-3(7)8-1-4-5/h1-2H	InChI=1S/C3H2N2O3/c6-2-5-3(7)8-1-4-5/h1-2H
