9
gdb 21977	5.76481	1.72004	1.32477	1.7786	49.65	-0.3229	-0.1303	0.1926	792.716	0.047835	-466.527948	-466.521971	-466.521026	-466.558835	20.424	
O	-0.0673329512	-0.0040378388	 0.0049803991	-0.348694
N	-0.0150076041	 1.2180543095	 0.0077636192	 0.369974
O	 0.9826444296	 1.9156041304	 0.0026818725	-0.320544
C	-1.2999043986	 1.8880469647	 0.0188922204	 0.489643
C	-2.554831243	 1.3714076011	 0.0262966364	-0.132872
N	-3.3952469399	 2.4558821919	 0.0355909256	-0.096775
N	-2.7429049024	 3.531841246	 0.0333941669	 0.030961
O	-1.3413165374	 3.2061196502	 0.0233673915	-0.179261
H	-2.8947446532	 0.3515386851	 0.0257419183	 0.187568
66.7052	210.4365	211.1994	426.6769	513.845	621.5679	628.5696	693.2322	786.4207	835.1967	875.5799	977.3848	1036.6145	1110.3273	1229.8371	1381.5038	1398.0711	1438.4847	1582.4862	1657.8168	3315.0158
O=N(=O)C1=CN=NO1	O=N(=O)c1cnno1	
InChI=1S/C2HN3O3/c6-5(7)2-1-3-4-8-2/h1H	InChI=1S/C2HN3O3/c6-5(7)2-1-3-4-8-2/h1H
