11
gdb 20485	5.23612	2.27867	1.60739	1.529	52.06	-0.2268	-0.0123	0.2146	703.417	0.074957	-430.680404	-430.674665	-430.67372	-430.710474	20.802	
C	 0.0562770167	 1.3795289763	-0.1019589668	 0.015553
O	 1.4176434733	 1.8342001278	 0.1097504685	-0.272301
C	 2.0239109653	 0.7555416037	 0.6602841996	 0.366006
N	 3.2013379034	 0.4500772175	 1.1331651014	-0.319855
N	 3.045582962	-0.894624187	 1.3498875018	-0.140387
N	 1.7908339011	-1.4031807193	 1.1344249142	-0.319854
C	 1.182429133	-0.3501017326	 0.6610042647	 0.366006
O	-0.0191110937	-0.0535936992	 0.1109713006	-0.272301
H	-0.5996069851	 1.8791729459	 0.6199602214	 0.139238
H	-0.2348510475	 1.6004356203	-1.1309438936	 0.149116
H	 3.6276076914	-1.3371282232	 2.0433994181	 0.288778
98.2151	307.5498	311.8966	354.6085	521.3056	627.8264	681.9725	744.941	762.0349	792.2428	911.1265	949.1269	1056.1591	1108.1193	1124.5066	1145.0621	1189.7815	1215.3478	1388.715	1453.6118	1525.9822	1530.9352	1619.8212	1663.7049	3039.4254	3119.088	3659.2132
C1OC2=NNN=C2O1	C1Oc2n[nH]nc2O1	
InChI=1S/C3H3N3O2/c1-7-2-3(8-1)5-6-4-2/h1H2,(H,4,5,6)	InChI=1S/C3H3N3O2/c1-7-2-3(8-1)5-6-4-2/h1H2,(H,4,5,6)
