10
gdb 23847	5.85091	1.66361	1.29531	1.1044	53.59	-0.27	-0.111	0.159	814.0431	0.060068	-454.70735	-454.701343	-454.700398	-454.737918	21.797	
F	 0.0236848743	 0.1116237122	-0.3218762059	-0.038244
C	-0.0396619986	 1.3879548889	-0.0209014906	 0.401509
N	-1.2145813244	 1.8766047047	 0.1099517154	-0.147356
O	-1.2545539645	 3.2428126707	 0.4317259819	-0.272627
C	-0.1015430303	 3.9753238443	 0.5883029396	 0.404487
N	-0.1033172996	 5.2090416755	 0.8784157092	-0.50882
C	 1.1479744501	 3.239142566	 0.3982174164	 0.007148
N	 1.1945499791	 1.9916055861	 0.1042554524	-0.264503
H	-1.0538200126	 5.5708585289	 0.9764070714	 0.244621
H	 2.0697384765	 3.8030331432	 0.5182827969	 0.173784
76.5503	311.1571	330.5857	368.8558	464.3801	516.5618	558.8776	629.1409	771.8195	802.7896	815.8408	882.1527	939.5141	998.8927	1033.5	1097.3988	1329.4314	1342.3368	1399.0762	1625.7721	1684.5599	1727.5062	3180.0849	3480.0414
FC1=NOC(=N)C=N1	FC1=NOC(=C[N]1)[NH]	
InChI=1S/C3H2FN3O/c4-3-6-1-2(5)8-7-3/h1,5H	InChI=1S/C3H2FN3O/c4-3-6-1-2(5)8-7-3/h1,5H
