11
gdb 24826	3.12226	1.5439	1.03307	6.3675	64.97	-0.2832	-0.0856	0.1977	1018.8539	0.067265	-451.595547	-451.588656	-451.587712	-451.62745	24.625	
O	-0.0141275613	-0.0353745375	 0.003940101	-0.298746
C	-0.0115266346	 1.167704314	 0.0098485995	 0.367234
N	-1.217821976	 1.9187307574	 0.0291420125	-0.287185
C	-1.1735468224	 3.1835883922	 0.0348166641	 0.138817
O	-0.0567170832	 3.9709053876	 0.0242975826	-0.16914
C	 1.1301179714	 3.3353968989	 0.0058583408	 0.036349
C	 1.2264556177	 1.9895393557	-0.0020313769	-0.083077
C	 2.5043720851	 1.3614804222	-0.0215976801	 0.252214
N	 3.5490993964	 0.8648237267	-0.0375091607	-0.311069
H	-2.063634615	 3.8052735865	 0.049389693	 0.171809
H	 1.9678243519	 4.0210854262	-0.0015490658	 0.182795
80.9003	147.9373	195.9052	385.0298	409.6755	458.4506	460.3479	571.5543	576.6759	613.2809	725.5304	822.7487	896.2663	942.8353	966.0186	973.256	1092.99	1183.2519	1312.8288	1373.7466	1411.1799	1616.8794	1710.0599	1816.8674	2353.6788	3198.6867	3229.4425
O=C1N=COC=C1C#N	O=c1ncocc1C#N	
InChI=1S/C5H2N2O2/c6-1-4-2-9-3-7-5(4)8/h2-3H	InChI=1S/C5H2N2O2/c6-1-4-2-9-3-7-5(4)8/h2-3H
