10
gdb 21760	5.85056	2.35348	1.67834	5.2823	52.52	-0.268	-0.0536	0.2144	664.5243	0.063245	-409.600485	-409.595523	-409.594579	-409.629543	18.757	
O	-0.0107359959	 1.3129968042	 0.0092803717	-0.239193
N	 1.3216543935	 1.7976985469	-0.0009344239	-0.105105
C	 2.0956976082	 0.7590049723	-0.0140127252	 0.051822
N	 1.3737127123	-0.4100717414	-0.013321272	-0.075883
C	 1.305628776	-1.7912321846	-0.0200181692	-0.001397
N	 0.049067148	-2.1542279747	-0.0100350424	-0.198569
N	-0.7734274803	-1.0261159911	 0.0039778251	-0.342925
C	 0.0579281615	-0.0285983498	 0.0013813831	 0.550817
H	 3.1713168588	 0.8328639799	-0.0239533107	 0.19376
H	 2.1617447078	-2.4439394716	-0.0317209564	 0.166674
213.5939	334.1601	482.8703	597.3318	649.0189	711.1501	748.9195	776.7072	789.9034	861.435	883.0867	960.3249	987.962	1018.5023	1219.6019	1222.3376	1239.6289	1382.4852	1429.163	1467.5453	1573.8621	1634.8826	3283.8893	3293.0093
O1N=CN2C=NN=C12	o1ncn2cnnc12	
InChI=1S/C3H2N4O/c1-4-6-3-7(1)2-5-8-3/h1-2H	InChI=1S/C3H2N4O/c1-4-6-3-7(1)2-5-8-3/h1-2H
