11
gdb 130801	3.23248	1.2696	1.01906	3.1385	56.96	-0.3082	-0.0739	0.2343	1076.0803	0.065509	-484.841666	-484.834272	-484.833328	-484.874929	25.193	
O	-0.0008061789	-0.031592454	 0.3594568841	-0.376003
C	-0.026705382	 1.1482648015	 0.1720785615	 0.570872
O	-1.1223640291	 1.9647862222	 0.1206121329	-0.228001
N	-0.6773048398	 3.2899569274	-0.1104071922	 0.042286
N	 0.5684621546	 3.2893592751	-0.1937838357	-0.0337
N	 1.0266657722	 2.0298378939	-0.0312526239	-0.09741
C	 2.4296584816	 1.6802750238	-0.0768875417	-0.2938
C	 2.9925460787	 1.7371266384	-1.4312593425	 0.285198
N	 3.4499709481	 1.7839436348	-2.4896752084	-0.273767
H	 2.9965975913	 2.3406718009	 0.5853212113	 0.194475
H	 2.4961421633	 0.6578908461	 0.3085103047	 0.20985
42.1949	83.5878	226.8944	248.1653	271.2907	365.0375	454.9993	557.0789	664.4948	725.2511	755.2355	766.2225	812.7409	936.661	962.962	1025.1862	1117.9982	1176.2114	1337.4411	1385.9493	1396.9482	1450.6768	1522.476	1906.6268	2376.7455	3068.514	3117.6972
O=C1ON=NN1CC#N	O=c1onnn1CC#N	
InChI=1S/C3H2N4O2/c4-1-2-7-3(8)9-6-5-7/h2H2	InChI=1S/C3H2N4O2/c4-1-2-7-3(8)9-6-5-7/h2H2
