11
gdb 48381	2.73813	1.27113	0.99415	1.9347	62.47	-0.3085	-0.0936	0.2149	1112.3782	0.063086	-451.529055	-451.520797	-451.519853	-451.562573	27.972	
O	-0.4979514824	 0.6360812036	 0.8563789494	-0.204067
C	 0.209053891	 0.909491042	-0.0691716567	 0.12813
C	 1.2928789241	 1.9704775716	 0.0076444667	 0.118384
O	 2.4068713032	 1.7516409971	-0.8633482391	-0.224428
C	 1.5572595085	 2.8366117629	-1.1871367028	-0.134394
C	 0.7592613103	 2.7252974285	-2.3897539211	 0.317156
N	 0.1242141519	 2.6654000501	-3.3527811962	-0.296118
C	 1.5901025608	 2.5079584014	 1.3189911153	 0.276887
N	 1.827987185	 2.9459776585	 2.360168567	-0.297753
H	 0.1550271042	 0.4171881587	-1.0596138297	 0.135164
H	 1.9658396434	 3.8268517356	-0.9958147827	 0.181039
82.8018	113.6006	140.5935	160.9042	246.0334	289.5475	336.5371	437.5791	481.8596	564.8118	601.4228	608.5066	744.1231	846.0626	910.739	996.5755	1034.1708	1065.5367	1235.2178	1291.1098	1387.7474	1421.6615	1846.3951	2366.5421	2373.9799	2960.3045	3147.2296
O=CC1(OC1C#N)C#N	O=C[C@]1(O[C@H]1C#N)C#N	
InChI=1S/C5H2N2O2/c6-1-4-5(2-7,3-8)9-4/h3-4H	InChI=1S/C5H2N2O2/c6-1-4-5(2-7,3-8)9-4/h3-4H/t4-,5+/m0/s1
