10
gdb 23624	4.26558	1.87499	1.30247	3.8483	50.92	-0.2656	-0.0543	0.2113	803.3503	0.060739	-458.603589	-458.597729	-458.596784	-458.63397	21.268	
F	 0.0970443057	 0.0554410843	 0.001758091	-0.025744
C	-0.0557801574	 1.3537973639	 0.0111686034	 0.42191
C	-1.2277143051	 1.9961148922	 0.0307670009	-0.449522
C	-1.2286789468	 3.4612795734	 0.0391966318	 0.409257
O	-2.22639292	 4.139549802	 0.0558627129	-0.329011
N	 0.0705326049	 4.0702902894	 0.0244116319	-0.287205
C	 1.0987784762	 3.3390890055	 0.0061947718	 0.136054
O	 1.1388093874	 1.9636320129	-0.0018353042	-0.191746
H	-2.1599811588	 1.4498988987	 0.0403515587	 0.148955
H	 2.1117425838	 3.7283409376	-0.0055673882	 0.167051
121.4173	202.9839	377.6794	436.5434	477.815	544.3246	587.0208	681.2179	777.7409	785.35	868.9571	900.2663	953.2724	962.6409	1058.4663	1209.6314	1265.4635	1369.9158	1418.0354	1657.0244	1746.2701	1812.5336	3203.111	3243.8123
FC1=CC(=O)N=CO1	Fc1cc(=O)nco1	
InChI=1S/C4H2FNO2/c5-3-1-4(7)6-2-8-3/h1-2H	InChI=1S/C4H2FNO2/c5-3-1-4(7)6-2-8-3/h1-2H
