10
gdb 133442	3.17362	1.4781	1.00843	1.6481	54.53	-0.2764	-0.1095	0.1669	1006.3175	0.051985	-553.953075	-553.94622	-553.945275	-553.985276	24.74	
F	 0.0126770289	 0.0980620138	 0.0040770109	-0.018528
C	-0.0202736906	 1.4118852172	 0.0109490082	 0.221708
N	-1.1510555116	 1.9958719567	 0.0281689496	-0.093057
O	-1.1245634101	 3.3717652481	 0.0347815244	-0.276505
C	 0.085771155	 4.1113847534	 0.0234429999	 0.473655
N	 0.0414195935	 5.3680807974	 0.0305825068	-0.48923
N	 1.2850147476	 3.4107495821	 0.0046012569	-0.304548
C	 1.2340308876	 2.149793783	-0.0012337454	 0.255815
F	 2.3325956865	 1.4324516929	-0.0186560474	-0.016712
H	-0.9221483568	 5.7012821355	 0.0445060762	 0.247403
45.8513	205.4163	289.2299	354.1968	386.3918	392.8736	481.4131	544.1118	611.2795	706.3052	706.7282	756.3456	796.109	860.2534	862.7518	1031.8081	1080.4787	1262.6375	1294.5762	1467.472	1662.6814	1744.9292	1762.6645	3512.1787
FC1=NOC(=N)N=C1F	FC1=NOC(=N[C]1F)[NH]	
InChI=1S/C3HF2N3O/c4-1-2(5)8-9-3(6)7-1/h6H	InChI=1S/C3HF2N3O/c4-1-2(5)8-9-3(6)7-1/h6H
