11
gdb 131038	2.33491	1.7363	0.9958	1.7947	66.65	-0.3056	-0.1089	0.1966	1049.7586	0.066487	-447.738081	-447.73095	-447.730006	-447.77025	24.775	
O	-0.0475220996	-0.0069399659	-0.0005436306	-0.215286
C	-0.0225801425	 1.1825578039	 0.008078354	 0.188247
N	 1.1856971123	 1.9424100749	 0.0005860168	-0.129925
N	 2.4133597706	 1.3608484301	-0.0171018964	-0.071118
N	 3.29697491	 2.3025125933	-0.0197150588	-0.145979
C	 2.6756492517	 3.5199920343	-0.0037497457	-0.167235
C	 1.3188628513	 3.3149379166	 0.0092937333	 0.300219
C	 0.2298902158	 4.2133328959	 0.0277704371	 0.242994
N	-0.6689357393	 4.9430982066	 0.0429629189	-0.324776
H	-0.902222278	 1.8463076934	 0.0225792919	 0.151968
H	 3.2245282776	 4.4469790567	-0.0027303904	 0.17089
130.6754	131.2542	164.7944	242.5338	250.6107	458.2143	501.3881	568.294	620.7555	693.5692	703.0422	801.942	883.2307	983.0355	1029.8368	1092.5582	1124.2758	1234.2759	1281.3296	1355.9839	1395.8805	1444.6643	1565.7499	1866.5551	2351.2586	3020.3805	3288.1196
O=CN1N=NC=C1C#N	O=Cn1nncc1C#N	
InChI=1S/C4H2N4O/c5-1-4-2-6-7-8(4)3-9/h2-3H	InChI=1S/C4H2N4O/c5-1-4-2-6-7-8(4)3-9/h2-3H
