11
gdb 21915	3.38763	2.42325	1.41271	2.8034	56.23	-0.2555	-0.0639	0.1917	776.901	0.07278	-434.530794	-434.524673	-434.523729	-434.56112	22.975	
O	-0.0762581269	 1.3066473765	 0.0105921889	-0.36684
C	-0.0001028264	-0.0249285386	 0.0027889525	 0.331505
N	 1.1796759194	-0.5548414485	-0.0076269071	-0.181779
O	 1.2565712474	-1.9440322461	-0.0154936631	-0.222281
C	 0.1386467233	-2.6756021541	-0.0121444509	 0.119915
C	-1.1140425223	-2.17883875	-0.0014093647	-0.275698
C	-1.3126502168	-0.7470798874	 0.0074366915	 0.328706
O	-2.3740117907	-0.154354724	 0.0175331266	-0.341591
H	 0.8281422406	 1.6555170278	 0.0066584807	 0.31384
H	 0.3849459999	-3.7320171985	-0.0193348504	 0.157482
H	-1.9709973176	-2.8394838372	 0.000643506	 0.136742
120.1326	293.5779	318.5473	410.3922	476.1678	500.7623	547.7523	590.2955	593.2199	720.0689	782.1332	861.0601	904.6564	961.0201	970.9917	1044.6664	1213.3487	1252.1371	1280.2158	1417.8113	1471.6035	1622.2255	1642.9089	1775.6084	3200.8181	3229.7117	3744.8099
OC1=NOC=CC1=O	Oc1noccc1=O	
InChI=1S/C4H3NO3/c6-3-1-2-8-5-4(3)7/h1-2H,(H,5,7)	InChI=1S/C4H3NO3/c6-3-1-2-8-5-4(3)7/h1-2H,(H,5,7)
