10
gdb 21396	5.91908	2.36995	1.69235	2.5774	53.07	-0.2594	-0.0583	0.2011	658.3069	0.063788	-405.766982	-405.761896	-405.760952	-405.796082	19.148	
N	 0.0096387107	 1.3382874058	 0.0452983207	-0.357481
N	 1.2932060687	 1.7868901396	 0.0229982806	-0.045477
N	 2.1010780688	 0.7964847808	-0.0104958282	-0.125612
N	 1.3264873713	-0.3334591559	-0.0099555988	 0.012603
C	 1.3573959224	-1.7089405518	-0.0307070373	 0.005339
N	 0.120135304	-2.1481706608	-0.0089999906	-0.199539
N	-0.7726216914	-1.0816434616	 0.0278199669	-0.340276
C	-0.0012823677	-0.0244241927	 0.0255155632	 0.568823
H	-0.7494068887	 1.997095179	 0.0730502664	 0.310309
H	 2.2551632319	-2.3012075824	-0.060215953	 0.17131
228.382	333.5043	428.512	468.9265	654.0107	684.1447	706.616	752.8991	777.9817	809.3664	984.8346	1010.094	1029.1716	1046.1088	1205.7308	1231.2353	1319.0238	1364.0367	1408.8588	1448.0865	1472.044	1638.2375	3303.4249	3694.3781
N1N=NN2C=NN=C12	[nH]1nnn2cnnc12	
InChI=1S/C2H2N6/c1-3-4-2-5-6-7-8(1)2/h1H,(H,4,5,7)	InChI=1S/C2H2N6/c1-3-4-2-5-6-7-8(1)2/h1H,(H,4,5,7)
