10
gdb 8611	2.16459	2.13311	1.52373	3.4886	56.46	-0.3279	-0.0634	0.2645	844.7648	0.059576	-372.492707	-372.484819	-372.483875	-372.524976	26.862	
N	-0.0448505065	 1.4779489731	 0.0718653292	-0.49131
C	 0.0014147999	 0.0178931441	 0.0054056646	-0.198449
C	 0.7977863321	-0.4830478427	 1.1512639025	 0.355463
N	 1.4395235479	-0.8557894553	 2.0340595163	-0.29059
C	-1.3821057058	-0.5047987382	 0.1099658405	 0.35547
N	-2.4658675323	-0.894852438	 0.1683764207	-0.290593
C	 0.6076110414	-0.5072182159	-1.2525280459	 0.308591
N	 1.0880430122	-0.8315568217	-2.251186789	-0.296865
H	 0.8969182943	 1.8538536608	 0.005248515	 0.274141
H	-0.5899537532	 1.8391869039	-0.705982664	 0.274142
126.9388	127.2361	161.1622	224.0653	236.9319	283.9579	366.828	502.0829	515.4841	567.2178	572.4767	581.5722	686.2853	839.7711	993.1605	1031.0271	1147.901	1327.6826	1651.6108	2358.1392	2377.8615	2383.5381	3498.1629	3589.811
NC(C#N)(C#N)C#N	NC(C#N)(C#N)C#N	
InChI=1S/C4H2N4/c5-1-4(8,2-6)3-7/h8H2	InChI=1S/C4H2N4/c5-1-4(8,2-6)3-7/h8H2
