10
gdb 130887	3.3224	1.36609	0.9686	3.0962	57.11	-0.2947	-0.1657	0.129	1064.3018	0.051273	-504.699518	-504.692049	-504.691104	-504.733668	24.98	
O	-0.0879259637	-0.0015382458	 0.0351379469	-0.194827
C	-0.0070530595	 1.1927651043	 0.0067171383	 0.129974
C	 1.3245673418	 1.9233829084	-0.0092991899	 0.290711
N	 2.4313447127	 1.2841350403	-0.0016152203	-0.281029
C	 3.6090508873	 2.0406300039	-0.0261724316	 0.486222
O	 4.7065425681	 1.5911152572	-0.0958869683	-0.285846
O	 3.4557024381	 3.428757756	 0.0482125837	-0.229773
N	 2.1863943235	 4.0469730532	 0.0154211944	 0.099367
N	 1.1820398289	 3.327708772	-0.026452954	-0.145867
H	-0.8812459272	 1.8712928505	-0.0101493692	 0.131067
16.5544	94.2804	168.1161	192.4081	375.8034	391.2215	466.0586	565.7264	641.5645	649.8854	715.1061	765.453	804.3637	918.4425	1015.3704	1033.6622	1117.4852	1215.235	1407.7628	1574.3467	1679.4591	1840.0289	1892.8687	2965.259
O=CC1=NC(=O)ON=N1	O=Cc1nc(=O)onn1	
InChI=1S/C3HN3O3/c7-1-2-4-3(8)9-6-5-2/h1H	InChI=1S/C3HN3O3/c7-1-2-4-3(8)9-6-5-2/h1H
