11
gdb 9462	3.03408	1.81296	1.68522	2.92	51.59	-0.2951	-0.0452	0.2499	797.8837	0.0711	-434.551438	-434.544189	-434.543245	-434.583202	25.118	
O	 0.0575793156	 1.4289162852	 0.1077832912	-0.435515
C	 0.0296850964	 0.0309153528	 0.0586518104	 0.084863
C	-1.3982609519	-0.5244357719	-0.1314681274	-0.095126
O	-1.0339641878	-1.0574295085	-1.4454094047	-0.226464
C	 0.2407321919	-0.5825275244	-1.3676113123	 0.424493
O	 1.1112288444	-0.619453686	-2.1686755235	-0.303255
C	 0.828633477	-0.5954746352	 1.1159251072	 0.235288
N	 1.4784208166	-1.078091193	 1.9404518643	-0.311969
H	 0.9644182178	 1.7251561001	-0.0420052852	 0.313553
H	-1.7068269635	-1.3212211366	 0.5443412346	 0.156752
H	-2.1503875965	 0.2599556575	-0.2171850547	 0.157381
115.8732	128.4329	188.9961	213.4792	318.8749	365.2606	425.6941	543.9036	611.5428	669.8148	744.7011	790.0091	928.4881	942.5026	998.2899	1117.6591	1143.289	1156.2041	1214.9267	1338.6991	1378.3144	1501.9677	1955.676	2356.4472	3097.0344	3172.5089	3790.585
OC1(COC1=O)C#N	O[C@]1(COC1=O)C#N	
InChI=1S/C4H3NO3/c5-1-4(7)2-8-3(4)6/h7H,2H2	InChI=1S/C4H3NO3/c5-1-4(7)2-8-3(4)6/h7H,2H2/t4-/m0/s1
