11
gdb 130861	1.8488	0.94637	0.63998	4.4173	61.38	-0.2576	-0.1008	0.1568	1566.2662	0.058038	-488.740299	-488.729261	-488.728317	-488.782842	31.741	
O	-0.2276519303	-0.0059939079	-0.0018674595	-0.203336
C	-0.2335472013	 1.1884096293	 0.0572404538	 0.104745
C	 1.0345433415	 2.0377692167	-0.2073609902	 0.311327
C	 0.785848432	 3.4758824973	-0.0758031548	-0.543389
C	 1.7656348976	 4.3485004626	-0.2736339966	 0.561655
O	 2.6273822927	 5.0904585672	-0.4518712774	-0.167899
N	 4.8172483149	 2.5977994507	 0.5834542975	-0.004314
N	 5.523239495	 1.7751103919	 0.4056367188	 0.000274
O	 2.0870971726	 1.5115320291	-0.4897915045	-0.309646
H	-1.1508909398	 1.7708716499	 0.3066533333	 0.087617
H	-0.1922458749	 3.8629014232	 0.1809463897	 0.162966
9.6146	21.0224	36.4037	47.4697	62.8712	83.7927	122.6477	145.0096	266.6075	384.5043	510.6092	532.5594	576.2206	635.371	782.6645	922.8606	993.3163	1036.4033	1129.8379	1388.3576	1423.3714	1760.9837	1852.6752	2243.6618	2432.7235	2862.6053	3211.5648	9.6227	21.0228	36.4044	47.4698	62.8713	83.7928	122.6474	145.0106	266.6076	384.5043	510.6093	532.5604	576.22	635.3725	782.6642	922.8606	993.3157	1036.4031	1129.8381	1388.3572	1423.3708	1760.9841	1852.6748	2243.6632	2432.7235	2862.6052	3211.5649
O=CC1=CC(=O)N=NO1	O=CC(=O)[CH][C][O].N#N	
InChI=1S/C4H2N2O3/c7-2-3-1-4(8)5-6-9-3/h1-2H	InChI=1S/C4H2O3.N2/c5-2-1-4(7)3-6;1-2/h1,3H;
