11
gdb 21504	5.3675	1.65886	1.26722	2.8504	52.41	-0.2691	-0.0582	0.2109	853.8561	0.073218	-430.744395	-430.737672	-430.736728	-430.776036	23.418	
N	-0.0746657857	 1.312797045	 0.0082375936	-0.533797
C	 0.0549640592	-0.0391361242	 0.0014224528	 0.341073
O	 1.1080167137	-0.6365820397	-0.0103718956	-0.331716
C	-1.2643222626	-0.7665210326	 0.0097576362	 0.286864
N	-2.4108707974	-0.1351908877	 0.0213536444	-0.173022
O	-3.3523078358	-1.1578182728	 0.0254790503	-0.151636
C	-2.6511558137	-2.2992460338	 0.0156960639	 0.113691
N	-1.3689102833	-2.1389557442	 0.0057699097	-0.2815
H	 0.7610832885	 1.8728094555	 0.0020745342	 0.27071
H	-0.9786591649	 1.7546379661	 0.0166575477	 0.28163
H	-3.215343628	-3.2200565415	 0.0170803428	 0.177704
50.0866	200.6	207.9398	237.5557	400.872	499.295	551.403	638.9208	667.5313	683.1592	829.4853	906.2068	940.3356	986.7455	1003.4775	1097.7015	1125.5197	1251.556	1318.7016	1418.4744	1498.6704	1577.8257	1613.996	1817.8411	3273.4437	3601.2327	3740.4436
NC(=O)C1=NOC=N1	NC(=O)c1nocn1	
InChI=1S/C3H3N3O2/c4-2(7)3-5-1-8-6-3/h1H,(H2,4,7)	InChI=1S/C3H3N3O2/c4-2(7)3-5-1-8-6-3/h1H,(H2,4,7)
