11
gdb 21833	6.31335	1.48985	1.2054	4.2393	54.32	-0.2688	-0.0379	0.231	891.0788	0.073503	-430.735863	-430.729491	-430.728546	-430.767106	22.104	
O	-0.3433117873	 0.0542505386	 0.0030523182	-0.256466
C	-0.0862462134	 1.2279140618	 0.0081946405	 0.150896
N	 1.1846004685	 1.7722542978	-0.0009450675	-0.399759
C	 2.386606203	 1.0948306964	-0.0156497688	 0.497164
N	 2.5353255646	-0.2087260828	-0.0269119898	-0.179144
O	 3.9407365203	-0.3429161461	-0.0391639287	-0.14935
C	 4.4419993701	 0.8855820068	-0.0338427395	 0.127101
N	 3.5551776308	 1.8291029217	-0.0192066804	-0.334681
H	-0.8486325877	 2.0303875837	 0.0201485951	 0.094631
H	 1.2766287385	 2.7775349452	 0.0053395306	 0.275301
H	 5.5174865125	 0.985073027	-0.0416438097	 0.174307
68.1183	162.2012	209.8264	362.446	384.2722	581.2119	618.5882	643.2987	770.9024	851.0139	910.0811	915.5465	977.0921	1016.7344	1023.2234	1149.8854	1166.5606	1287.5888	1336.4425	1434.923	1504.4746	1574.8065	1628.8814	1838.8463	2953.5753	3269.3592	3624.0948
O=CNC1=NOC=N1	O=CNc1nocn1	
InChI=1S/C3H3N3O2/c7-1-4-3-5-2-8-6-3/h1-2H,(H,4,6,7)	InChI=1S/C3H3N3O2/c7-1-4-3-5-2-8-6-3/h1-2H,(H,4,6,7)
