10
gdb 21506	5.38989	1.65731	1.26755	3.882	49.65	-0.2867	-0.0934	0.1933	839.7608	0.059976	-446.74653	-446.739811	-446.738866	-446.778053	23.253	
N	-0.0578526719	 1.3253192806	 0.0076079895	-0.535192
C	 0.0548587826	-0.0266280888	 0.0013284015	 0.367284
O	 1.095051197	-0.6450300001	-0.0100647299	-0.32903
C	-1.2690204506	-0.7350270704	 0.0094822099	 0.333864
N	-2.4353805875	-0.1536992699	 0.0213068999	-0.145616
O	-3.3285171168	-1.1532982749	 0.0244853617	-0.139563
N	-2.6224390234	-2.3784024146	 0.0151931526	 0.059302
N	-1.4006295639	-2.1118100456	 0.0049816133	-0.173994
H	 0.786281381	 1.8734302341	 0.0022562604	 0.277663
H	-0.9528528864	 1.7850324696	 0.0165834613	 0.285282
58.6112	198.5349	206.6664	252.2823	396.4414	501.5178	550.7536	603.1113	666.4534	676.5375	697.7253	822.4693	982.8968	1049.3829	1096.3302	1103.4522	1245.9966	1380.3694	1500.9122	1559.7951	1617.7652	1819.0093	3601.2997	3738.1904
NC(=O)C1=NON=N1	NC(=O)c1nonn1	
InChI=1S/C2H2N4O2/c3-1(7)2-4-6-8-5-2/h(H2,3,7)	InChI=1S/C2H2N4O2/c3-1(7)2-4-6-8-5-2/h(H2,3,7)
