11
gdb 132253	3.78036	1.20897	0.91602	2.2982	65.56	-0.3007	-0.0955	0.2052	1112.0429	0.067429	-455.756823	-455.750227	-455.749282	-455.788284	23.951	
F	 0.0121229717	 0.0542453653	 0.0031591702	-0.044048
C	-0.0152104294	 1.3721737358	 0.0104381847	 0.380347
C	-1.2472710895	 2.0202317138	 0.0308442889	-0.325476
C	-1.173652897	 3.4091458589	 0.0370630986	 0.244647
N	-0.0106359877	 4.0805694499	 0.0244649797	-0.297691
C	 1.0834144993	 3.3283900169	 0.0053866847	 0.073855
N	 1.142399026	 1.9913118681	-0.0023723794	-0.29006
C	-2.3845387041	 4.1895092746	 0.0578786708	 0.257496
N	-3.3736304364	 4.7873275774	 0.0746750237	-0.30512
H	-2.1841022838	 1.4804435028	 0.0409871853	 0.156952
H	 2.0346421209	 3.8525560365	-0.0050097771	 0.149099
135.2927	154.2582	221.0172	378.3006	423.2182	474.7191	511.0067	556.4045	601.0982	708.5736	797.6767	797.791	904.1997	969.036	1001.3497	1003.3459	1158.7813	1259.1419	1295.3567	1346.7857	1413.2863	1491.3631	1596.6138	1617.7205	2360.6728	3186.421	3234.6062
FC1=CC(=NC=N1)C#N	Fc1cc(ncn1)C#N	
InChI=1S/C5H2FN3/c6-5-1-4(2-7)8-3-9-5/h1,3H	InChI=1S/C5H2FN3/c6-5-1-4(2-7)8-3-9-5/h1,3H
