11
gdb 132942	3.24337	1.45868	1.00616	1.7701	57.6	-0.2715	-0.0634	0.2082	1025.3851	0.064976	-533.823149	-533.816177	-533.815233	-533.855146	25.323	
F	 0.0205244028	 0.0065180315	-0.2091446791	-0.035116
C	 0.0009100092	 1.3146735991	-0.0205118664	 0.139949
C	-1.14100853	 1.9946857618	 0.0715318058	-0.049123
O	-1.1728787115	 3.3469018076	 0.266466143	-0.213729
C	-0.0210677445	 4.0694819817	 0.3765109815	 0.486207
O	-0.0449135924	 5.2422056046	 0.5469929281	-0.323506
O	 1.1481802346	 3.3810567087	 0.2839750029	-0.26186
C	 1.2761251052	 2.002624133	 0.0857454043	 0.335258
N	 2.4002829521	 1.445466364	 0.0115297701	-0.501773
H	-2.127344311	 1.5584556392	 0.0033705647	 0.173228
H	 3.1594019356	 2.1197614986	 0.1130143251	 0.250464
90.6025	118.8197	302.2511	347.9639	369.4988	388.8113	457.4761	524.3628	628.7919	727.0811	730.103	757.894	814.0121	884.6208	896.3825	913.3667	1061.2472	1091.2632	1218.7727	1256.7272	1328.756	1428.4606	1740.0124	1773.5257	1920.5358	3248.6064	3501.1264
FC1=COC(=O)OC1=N	FC1=C(OC(=O)O[CH]1)[NH]	
InChI=1S/C4H2FNO3/c5-2-1-8-4(7)9-3(2)6/h1,6H	InChI=1S/C4H2FNO3/c5-2-1-8-4(7)9-3(2)6/h1,6H
