10
gdb 132478	3.27948	1.41002	0.98606	2.7359	54.3	-0.2607	-0.0896	0.1711	1013.1985	0.052502	-557.847803	-557.841183	-557.840238	-557.879298	24.221	
F	 0.0899399103	 0.0735656516	 0.0021902726	-0.021626
C	-0.0714903756	 1.371237159	 0.0113983732	 0.379524
C	-1.2596615953	 2.0019481325	 0.0310715142	-0.254735
N	-1.2898677106	 3.37920667	 0.0388695478	-0.259481
C	-0.1886270096	 4.0151600347	 0.027177975	 0.209223
F	-0.1845898231	 5.3333115006	 0.0344175873	-0.034588
C	 1.1577675418	 3.4149733206	 0.0055856268	 0.333424
O	 2.2157998204	 3.9609527903	-0.0059384365	-0.293089
O	 1.0973475026	 2.0105082081	-0.0011494377	-0.211697
H	-2.1942681209	 1.4610062524	 0.0409582273	 0.153046
110.0641	179.9344	319.6246	356.4595	418.8774	454.8847	478.2923	514.6264	630.4161	671.2875	719.3421	775.6581	790.955	840.1873	1009.1852	1046.9103	1229.3258	1293.8761	1340.7053	1407.6452	1629.7026	1703.585	1881.458	3242.5476
FC1=CN=C(F)C(=O)O1	Fc1cnc(F)c(=O)o1	
InChI=1S/C4HF2NO2/c5-2-1-7-3(6)4(8)9-2/h1H	InChI=1S/C4HF2NO2/c5-2-1-7-3(6)4(8)9-2/h1H
