10
gdb 21771	7.32563	1.38484	1.16467	5.4297	57.74	-0.2621	-0.0592	0.2028	910.9335	0.060208	-413.441652	-413.435189	-413.434244	-413.472371	23.52	
O	-0.0590972957	-0.0388789155	 0.0033171627	-0.380389
C	-0.0422096433	 1.1553645546	 0.0092937269	 0.489706
N	-1.0859799711	 2.0669264704	 0.0287442112	-0.429528
C	-0.5534434724	 3.3335360259	 0.0284666076	 0.288489
N	 0.7467667524	 3.3086972418	 0.0111119772	-0.169237
O	 1.0876389798	 1.9446378655	-0.0010023868	-0.218744
C	-1.3297464574	 4.5132471751	 0.0456116131	 0.269173
C	-2.0216595637	 5.4955468535	 0.0605122101	-0.369137
H	-2.058720969	 1.8133581216	 0.0405524423	 0.2967
H	-2.6208875798	 6.3736237374	 0.0735720057	 0.222968
128.9035	147.5688	257.7497	438.5166	456.8453	471.5273	567.3738	581.6442	648.9403	705.725	706.2115	753.3905	770.3825	928.6743	956.8786	1033.0441	1198.867	1260.3828	1470.438	1592.6001	1915.7667	2252.3785	3494.9006	3689.5307
O=C1NC(=NO1)C#C	O=c1[nH]c(no1)C#C	
InChI=1S/C4H2N2O2/c1-2-3-5-4(7)8-6-3/h1H,(H,5,6,7)	InChI=1S/C4H2N2O2/c1-2-3-5-4(7)8-6-3/h1H,(H,5,6,7)
