11
gdb 21372	5.64401	2.31053	1.6394	7.3658	57.23	-0.2329	-0.0141	0.2188	687.7787	0.076206	-389.752611	-389.747197	-389.746253	-389.781903	20.787	
N	-0.0565569575	 1.3748683293	 0.0103574572	-0.416707
C	 1.2933848802	 1.7529923147	-0.0007051356	 0.007772
N	 2.1300031381	 0.7494842569	-0.0143106566	-0.315973
C	 1.3081541068	-0.3557241805	-0.0123688139	 0.332405
C	-0.0250997073	 0.0112492276	 0.0026054588	 0.444117
N	-0.7145158231	-1.1405232781	 0.0030575261	-0.363534
N	 0.1941935297	-2.1963399868	-0.0116854723	-0.119515
N	 1.3969991306	-1.7148568576	-0.0206225333	-0.269293
H	-0.848855853	 1.9932799248	 0.0216412488	 0.277138
H	 1.5627103137	 2.7990809882	 0.0023925933	 0.142828
H	-1.6979562182	-1.3479686985	 0.0113534876	 0.280762
228.2857	342.829	363.1739	433.4926	498.9725	639.5022	686.0182	722.5651	770.3016	782.9349	820.6419	895.0235	954.6509	1019.8032	1052.6906	1195.3635	1257.0937	1309.7387	1361.6444	1372.3129	1442.5268	1504.3111	1534.1157	1646.4376	3252.3093	3678.4607	3685.5659
N1C=NC2=C1NN=N2	[nH]1cnc2c1[nH]nn2	
InChI=1S/C3H3N5/c1-4-2-3(5-1)7-8-6-2/h1H,(H2,4,5,6,7,8)	InChI=1S/C3H3N5/c1-4-2-3(5-1)7-8-6-2/h1H,(H2,4,5,6,7,8)
