11
gdb 132687	3.16863	1.42276	0.98188	2.155	57.17	-0.2494	-0.0603	0.1891	1037.5454	0.065525	-537.98872	-537.982083	-537.981139	-538.020002	25.027	
O	 0.0886141126	 1.3261563743	-0.0616308435	-0.411257
C	 0.0645843061	-0.0174882012	-0.0447306415	 0.411284
C	 0.0094277918	-0.7287327193	-1.2465602821	-0.095767
N	-0.014706716	-2.0615161113	-1.23721388	-0.266869
C	 0.0146275451	-2.6702663456	-0.0802250548	 0.187803
F	-0.008689253	-3.9955840885	-0.0525440679	-0.047994
C	 0.0697221228	-1.9501185476	 1.1163385291	 0.187191
F	 0.0985938864	-2.5876460582	 2.2732215874	-0.037685
N	 0.094384954	-0.6403187719	 1.1333680737	-0.378358
H	 0.1262564922	 1.6241589224	 0.8573436495	 0.310539
H	-0.0146259121	-0.2167138231	-2.2013450498	 0.141114
130.0402	249.2569	295.9909	352.9216	404.7393	474.3872	501.685	521.5353	551.5092	618.2499	689.1543	735.1951	778.6635	823.4987	908.1501	1036.6927	1187.1009	1207.0545	1299.9447	1322.167	1404.6902	1499.5922	1515.6387	1617.3681	1653.1702	3203.1883	3780.6136
OC1=CN=C(F)C(F)=N1	Oc1cnc(F)c(F)n1	
InChI=1S/C4H2F2N2O/c5-3-4(6)8-2(9)1-7-3/h1H,(H,8,9)	InChI=1S/C4H2F2N2O/c5-3-4(6)8-2(9)1-7-3/h1H,(H,8,9)
