11
gdb 23840	5.92339	1.6261	1.27585	1.2995	57.62	-0.2304	-0.0913	0.1391	836.0531	0.073679	-434.862871	-434.856829	-434.855885	-434.893296	22.534	
F	 0.013164452	 0.0951670736	-0.2891113762	-0.052518
C	-0.0289607117	 1.3876698023	-0.0353461591	 0.375433
N	-1.1874402413	 1.940940012	 0.0193541004	-0.238668
N	-1.1755340771	 3.2621859183	 0.2815019338	-0.246006
C	-0.0503365316	 4.0476314056	 0.4903097693	 0.363288
N	-0.1746495371	 5.2994065941	 0.7322749144	-0.552508
C	 1.1737591485	 3.2431201802	 0.3889911105	-0.036228
N	 1.1924294444	 1.977710355	 0.1393408392	-0.26655
H	-2.082982721	 3.7032049793	 0.3258625727	 0.286617
H	 0.7379346916	 5.7324373055	 0.8612234442	 0.22217
H	 2.1249911335	 3.753521554	 0.5350848607	 0.144969
89.223	329.9903	362.9813	379.0088	484.2338	511.4751	521.7784	642.0988	668.9378	752.6979	786.9781	816.8508	847.4926	975.2329	1003.0464	1109.5059	1255.5583	1332.7398	1382.3588	1418.7436	1459.5758	1581.0808	1658.3512	1704.0753	3146.2833	3504.106	3617.0263
FC1=NNC(=N)C=N1	Fc1n[nH]c([NH])cn1	
InChI=1S/C3H3FN4/c4-3-6-1-2(5)7-8-3/h1H,(H2,5,7)	InChI=1S/C3H8FN4/c4-3-6-1-2(5)7-8-3/h2-3,5-8H,1H2
