11
gdb 130845	2.82447	1.34449	0.91089	2.6562	63.24	-0.2921	-0.1304	0.1617	1132.6537	0.063453	-488.66096	-488.653363	-488.652418	-488.693844	25.747	
O	-0.0026899532	-0.0636416089	-0.0027167857	-0.221283
C	-0.0144893951	 1.1386172132	 0.0087648209	 0.08702
C	 1.2143602806	 1.9696557069	 0.0025813017	 0.27482
C	 1.3869663878	 3.3349081567	 0.0131332117	 0.092695
C	 0.3977411918	 4.4249353619	 0.0343409454	 0.087955
O	 0.6850866892	 5.5942695825	 0.0418631622	-0.233065
N	 2.7534419656	 3.5483750426	-0.0004062878	-0.127757
N	 3.3738257997	 2.4671290671	-0.0171116759	 0.032272
O	 2.4011482162	 1.3877434687	-0.0162687814	-0.201803
H	-0.9525927912	 1.7264384333	 0.0249966195	 0.116474
H	-0.6579793815	 4.0813140259	 0.0429998994	 0.092672
93.0659	137.703	147.8851	222.1635	226.7995	311.1382	411.9149	531.1004	546.887	673.0388	721.0036	774.3509	819.9501	999.8996	1010.2682	1024.3027	1133.1637	1278.1059	1378.46	1419.6555	1427.5215	1505.3919	1584.6885	1806.9192	1811.0381	2907.3178	2949.0222
O=CC1=C(C=O)N=NO1	O=Cc1c(C=O)nno1	
InChI=1S/C4H2N2O3/c7-1-3-4(2-8)9-6-5-3/h1-2H	InChI=1S/C4H2N2O3/c7-1-3-4(2-8)9-6-5-3/h1-2H
