10
gdb 132897	3.11642	1.43908	0.98447	2.4811	54.1	-0.2596	-0.0969	0.1627	1016.6216	0.052515	-557.843993	-557.837385	-557.836441	-557.875469	24.265	
F	 0.0325964617	 0.0285842138	 0.0025756056	-0.053706
C	-0.0279819629	 1.35012568	 0.0105288289	 0.249622
C	-1.2062169166	 1.9966053577	 0.0300992393	-0.079847
O	-1.2341210914	 3.3542804424	 0.0377963801	-0.194093
C	-0.0809489977	 4.1094354959	 0.0261362472	 0.342947
O	-0.1256345247	 5.3039477703	 0.0331229362	-0.310238
C	 1.1393689983	 3.2693786718	 0.0049472227	 0.20517
F	 2.2626698635	 3.9470812114	-0.0068006937	-0.020138
N	 1.169946223	 1.995761917	-0.0023440086	-0.311008
H	-2.1835928631	 1.5374891997	 0.0409678524	 0.171291
99.8973	233.2913	315.4105	364.301	368.5446	456.5941	473.6726	539.2669	623.7275	642.7756	677.7752	784.1456	829.8864	832.5555	1008.5925	1077.3831	1209.4147	1310.4078	1343.085	1403.5983	1644.3039	1701.8845	1860.1796	3250.6783
FC1=COC(=O)C(F)=N1	Fc1coc(=O)c(F)n1	
InChI=1S/C4HF2NO2/c5-2-1-9-4(8)3(6)7-2/h1H	InChI=1S/C4HF2NO2/c5-2-1-9-4(8)3(6)7-2/h1H
