11
gdb 53784	3.13332	1.12308	0.96427	4.7767	58.29	-0.275	-0.1331	0.1419	1163.8912	0.063181	-488.722037	-488.713029	-488.712084	-488.757386	29.848	
N	-0.0210420581	 1.3032516057	-0.0091853676	-0.526576
C	-0.014920605	-0.0234207861	 0.2353435138	 0.345841
O	 0.8556579132	-0.6685707067	 0.780441922	-0.324473
C	-1.3128449048	-0.7136612296	-0.2103148069	 0.218514
O	-2.3341956774	-0.1309318415	-0.4686894138	-0.2668
C	-1.2511384015	-2.2464747265	-0.3386329417	 0.264553
O	-0.4190280487	-2.7865473951	-1.0149742567	-0.230718
C	-2.3564108618	-2.9715402302	 0.3032363217	 0.238464
N	-3.2120560518	-3.5297578165	 0.8445932579	-0.288415
H	 0.7391296325	 1.8728859534	 0.3250158677	 0.282457
H	-0.8540140565	 1.7391870932	-0.3712683963	 0.287154
26.8394	61.1533	130.1502	164.7344	236.2844	264.8357	327.3604	370.2218	393.4127	462.7328	500.2928	606.0272	634.0635	660.8098	755.9042	837.3999	942.7124	1093.7578	1206.7747	1375.1231	1604.1555	1791.0848	1811.5759	1815.6252	2340.2882	3592.7982	3727.2844
NC(=O)C(=O)C(=O)C#N	NC(=O)C(=O)C(=O)C#N	
InChI=1S/C4H2N2O3/c5-1-2(7)3(8)4(6)9/h(H2,6,9)	InChI=1S/C4H2N2O3/c5-1-2(7)3(8)4(6)9/h(H2,6,9)
