10
gdb 128873	9.94691	0.67305	0.63039	2.5582	76.82	-0.3009	-0.1048	0.1961	1566.1526	0.05475	-430.404824	-430.397847	-430.396903	-430.437178	24.17	
N	 0.0740306335	-3.7089026617	-0.0187063274	-0.316374
C	 0.0416975771	-2.5477479176	-0.0118873286	 0.187349
C	 0.0089203551	-1.1841129423	-0.0039444252	 0.242533
C	-0.0183557651	 0.0241374706	 0.0030714785	 0.007404
C	-0.0140635168	 1.4331796773	 0.0108014465	 0.188481
N	-1.1158737102	 2.1568116105	 0.0288563679	-0.143231
O	-0.7035656202	 3.444891589	 0.0307021219	-0.13687
N	 0.6628566167	 3.5483023565	 0.0138356657	-0.04076
C	 1.1036406612	 2.324701957	 0.0014587956	-0.161398
H	 2.1583044087	 2.1007044606	-0.0132391749	 0.172866
78.862	88.2961	236.0485	239.5636	431.1434	471.816	499.872	591.0806	599.9337	646.2979	732.2766	876.1512	903.22	951.4551	953.5149	1036.9466	1088.5491	1223.6567	1383.6621	1471.8797	1580.2708	2272.31	2394.412	3281.2964
N#CC#CC1=NON=C1	N#CC#Cc1nonc1	
InChI=1S/C5HN3O/c6-3-1-2-5-4-7-9-8-5/h4H	InChI=1S/C5HN3O/c6-3-1-2-5-4-7-9-8-5/h4H
