11
gdb 21601	3.63062	2.00265	1.29231	5.2876	59.58	-0.2423	-0.0591	0.1832	840.2177	0.07341	-393.574864	-393.568177	-393.567233	-393.60579	24.254	
N	 0.0644861136	 1.3874974562	 0.1641644308	-0.615271
C	 0.0056451723	 0.0097967971	 0.03921998	 0.084073
C	-1.056871203	-0.8450980658	 0.0130697858	 0.001289
O	-0.6193924317	-2.1257378535	-0.0405249809	-0.146388
N	 0.7409236407	-2.1565242413	-0.0516330068	-0.18979
C	 1.1198489734	-0.8897397928	-0.0043118887	 0.261537
C	 2.4901005001	-0.513856838	-0.0120245289	 0.246574
N	 3.5794800425	-0.1238209993	-0.0243961946	-0.332276
H	 0.9283279927	 1.7956796751	-0.1657938283	 0.270552
H	-0.7372702994	 1.8837314071	-0.1963688659	 0.261931
H	-2.1253577411	-0.7088687248	 0.0293831375	 0.157768
134.3877	171.9849	226.4726	326.324	359.7036	521.2861	543.69	599.7189	606.3996	629.985	732.2464	736.2187	776.0711	933.5818	1010.5916	1110.0049	1134.45	1248.2264	1317.2895	1426.7895	1495.6987	1646.3371	1675.7918	2355.5997	3283.298	3562.1553	3658.8282
NC1=CON=C1C#N	Nc1conc1C#N	
InChI=1S/C4H3N3O/c5-1-4-3(6)2-8-7-4/h2H,6H2	InChI=1S/C4H3N3O/c5-1-4-3(6)2-8-7-4/h2H,6H2
