11
gdb 128871	9.65462	0.67682	0.63248	5.4344	80.74	-0.2848	-0.0849	0.1999	1582.9177	0.066875	-414.383717	-414.376595	-414.375651	-414.416162	25.101	
N	 0.0543992185	-3.7159170646	-0.0183940525	-0.324387
C	 0.0292216774	-2.5543334705	-0.0117174784	 0.173115
C	 0.0056954724	-1.1907189074	-0.0039578705	 0.316303
C	-0.0168117696	 0.0180281006	 0.0029399232	-0.074814
C	 0.0011526152	 1.4313783225	 0.0104710686	 0.186747
N	-1.1294406734	 2.1223095562	 0.0287878907	-0.177472
O	-0.7472846134	 3.4430700237	 0.0311056574	-0.146009
C	 0.5933088202	 3.5277539272	 0.0143455594	 0.062763
C	 1.1434834429	 2.2900389926	 0.0004932238	-0.333891
H	 1.0017035213	 4.5259737962	 0.0145610636	 0.169304
H	 2.1825944584	 2.0110647436	-0.0143939851	 0.14834
77.4197	86.6993	231.6712	232.3331	428.7073	459.3586	502.8043	584.6038	589.2835	616.2963	727.6569	805.4547	878.9873	921.136	930.0352	973.5532	1050.6287	1096.4555	1150.9892	1315.2965	1405.0955	1478.3181	1576.5727	2269.0294	2392.7177	3273.0092	3300.5966
N#CC#CC1=NOC=C1	N#CC#Cc1nocc1	
InChI=1S/C6H2N2O/c7-4-1-2-6-3-5-9-8-6/h3,5H	InChI=1S/C6H2N2O/c7-4-1-2-6-3-5-9-8-6/h3,5H
