11
gdb 129145	2.33041	0.89973	0.66143	1.3249	67.64	-0.2741	-0.0739	0.2002	1535.2853	0.058362	-447.745318	-447.734111	-447.733167	-447.786853	33.353	
N	-0.2233744607	 1.2374602953	-0.4532089234	-0.516974
C	-0.7878450869	 0.2241408382	-0.1141763424	 0.520531
N	 2.4403681223	-0.7895323656	 0.5384536048	-0.012461
N	 3.038867791	-1.7104198242	 0.5255862918	 0.011426
O	-0.1919103731	-2.5295056173	-0.342136383	-0.297295
C	-1.286426493	-2.067166027	-0.120009396	 0.219625
N	-1.5390531592	-0.7108832856	 0.1609070719	-0.328936
C	-2.4876425975	-2.8686082069	-0.0782449399	 0.276324
C	-3.4614764665	-3.5733507413	-0.0629975498	-0.395395
H	 0.6177746808	 1.5847168538	-0.0156569444	 0.303949
H	-4.3228154571	-4.1961448594	-0.0491730296	 0.219206
15.7721	34.6909	41.053	42.6096	57.4138	82.8668	114.5514	191.61	262.7013	396.7355	496.2821	537.5699	569.6614	640.0456	652.3089	708.0174	763.3936	819.3656	846.3435	1120.3631	1425.3489	1751.3012	2224.0724	2250.4142	2434.8972	3496.0964	3642.5328	15.7724	34.6909	41.0522	42.6091	57.4135	82.8665	114.5514	191.61	262.7008	396.7354	496.2821	537.5699	569.6614	640.0456	652.3084	708.0167	763.3933	819.3657	846.3436	1120.363	1425.3488	1751.301	2224.0724	2250.4144	2434.8971	3496.0964	3642.5329
N=C1N=NOC(=N1)C#C	[NH][C][N]C(=O)C#C.N#N	
InChI=1S/C4H2N4O/c1-2-3-6-4(5)7-8-9-3/h1,5H	InChI=1S/C4H2N2O.N2/c1-2-4(7)6-3-5;1-2/h1,5H;
