11
gdb 8728	2.67149	1.86669	1.24277	1.63	58.45	-0.2931	-0.1087	0.1845	914.0806	0.068753	-397.366234	-397.358	-397.357056	-397.399469	28.022	
O	-0.0490498637	 1.482110298	-0.0724065424	-0.398637
C	-0.0003198256	 0.0859761485	-0.0586251827	-0.11362
C	 0.675417687	-0.5028184315	-1.2225139991	 0.305831
C	 1.2536641534	-0.9899051868	-2.1560224721	-0.442601
C	 0.7499263939	-0.399431843	 1.1958823014	 0.277488
O	 1.3527706443	 0.366580407	 1.9026962719	-0.276444
C	 0.7007156336	-1.8387069955	 1.4706803635	 0.260642
N	 0.6223345856	-2.9697535728	 1.6967736421	-0.286607
H	 0.6718900707	 1.7923155672	 0.4964113345	 0.304249
H	-1.0283011748	-0.3024973602	-0.0065324455	 0.149348
H	 1.7524889356	-1.4176146311	-2.9914583115	 0.220351
51.1976	107.4587	163.3224	217.1914	254.4414	300.2901	338.3239	421.6794	457.3215	588.1245	593.3396	654.4013	696.5245	706.6379	863.9621	964.2332	1074.325	1136.4591	1248.9807	1319.5186	1419.9784	1797.755	2232.871	2342.937	3006.8978	3497.8096	3723.148
OC(C#C)C(=O)C#N	O[C@@H](C#C)C(=O)C#N	
InChI=1S/C5H3NO2/c1-2-4(7)5(8)3-6/h1,4,7H	InChI=1S/C5H3NO2/c1-2-4(7)5(8)3-6/h1,4,7H/t4-/m0/s1
