10
gdb 21752	5.75672	2.49467	1.74045	2.5034	52.15	-0.2745	-0.0389	0.2356	648.151	0.064496	-409.629847	-409.625034	-409.62409	-409.658798	18.018	
O	-0.072505555	 1.3298725972	 0.0098707228	-0.198552
C	 1.2567809405	 1.6850491206	-0.0009286527	 0.082915
N	 2.1038085821	 0.7073507995	-0.0142767081	-0.209787
N	 1.2693211594	-0.3761611508	-0.0121111083	 0.09575
N	 1.394813319	-1.7209883237	-0.0205587276	-0.257878
C	 0.1043654177	-2.066389354	-0.0099974759	 0.036853
N	-0.8283200564	-1.0514313471	 0.0043179724	-0.384015
C	-0.0231997467	-0.0212675742	 0.002158395	 0.500505
H	 1.4857906781	 2.736883156	 0.0025213147	 0.19006
H	-0.1866233987	-3.1057705735	-0.0127834023	 0.144149
212.4368	359.1978	512.336	632.1497	663.6918	740.2267	753.4784	783.2329	826.067	895.5747	938.6743	983.8431	1084.0542	1164.2778	1185.8847	1259.3843	1293.3152	1362.9941	1429.6417	1459.4052	1566.1069	1622.7306	3270.2451	3311.5221
O1C=NN2N=CN=C12	o1cnn2ncnc12	
InChI=1S/C3H2N4O/c1-4-3-7(5-1)6-2-8-3/h1-2H	InChI=1S/C3H2N4O/c1-4-3-7(5-1)6-2-8-3/h1-2H
