10
gdb 21404	4.06057	2.06063	1.36694	1.3691	54.21	-0.2863	-0.114	0.1723	787.8436	0.059717	-446.755759	-446.749156	-446.748212	-446.787098	23.285	
N	-0.0919845623	 1.3027386988	 0.309395739	-0.544067
C	 0.0103546734	 0.0996254568	-0.0522960644	 0.501098
N	-1.1357436247	-0.6896220212	-0.1526425485	-0.38513
C	-1.1934648038	-1.9939431523	-0.525894146	 0.50742
O	-2.1774522586	-2.6688113663	-0.6115206574	-0.312151
N	 0.1165003742	-2.5795678915	-0.8443940707	-0.10261
N	 1.1651395588	-1.989144664	-0.7908235715	 0.079793
O	 1.1660628096	-0.5269627203	-0.3651332128	-0.289638
H	 0.817632581	 1.7581202527	 0.339249219	 0.247789
H	-2.0044840074	-0.2259483028	 0.0803281033	 0.297497
81.9554	108.4623	261.8111	370.3176	442.935	488.7512	565.339	615.4359	658.7175	714.5902	763.114	778.2393	816.6908	917.6424	951.612	1097.4648	1267.936	1380.9729	1413.6809	1722.4446	1774.3936	1881.1064	3536.026	3603.3063
N=C1NC(=O)N=NO1	[NH][C]1NC(=O)N=NO1	
InChI=1S/C2H2N4O2/c3-1-4-2(7)5-6-8-1/h(H2,3,4,7)	InChI=1S/C2H2N4O2/c3-1-4-2(7)5-6-8-1/h(H2,3,4,7)
