11
gdb 29119	3.14499	1.51688	1.02339	4.4408	56.22	-0.2423	-0.0838	0.1585	1023.8579	0.063928	-529.681658	-529.673911	-529.672967	-529.715265	26.956	
O	 0.0391037562	 1.38920036	 0.1387235806	-0.404227
C	-0.0692709492	 0.0570540126	 0.0421287128	 0.374164
C	-1.1963106291	-0.5949426114	-0.226557864	-0.120655
O	-1.2212611182	-1.9743777201	-0.3362804751	-0.187799
C	-0.1069950201	-2.7150572904	-0.1568896015	 0.31819
O	-0.1228405518	-3.9045058016	-0.2506811256	-0.27895
C	 1.194193959	-1.9629296633	 0.1757014921	 0.300212
O	 2.2300572217	-2.5111499321	 0.3680314668	-0.257786
O	 1.1207444667	-0.5890795634	 0.2422356104	-0.227877
H	 0.9346272504	 1.6005433618	 0.430363342	 0.320573
H	-2.1533494157	-0.1279758721	-0.3843835885	 0.164155
31.4039	107.8843	126.5681	333.9824	340.3549	366.5427	455.5069	460.1386	499.0061	619.0158	635.0913	670.8604	747.2882	800.2743	812.0783	1019.0245	1045.512	1143.1107	1205.1901	1289.2005	1322.3108	1385.7342	1797.7752	1861.3076	1892.3179	3284.4469	3809.3092
OC1=COC(=O)C(=O)O1	Oc1coc(=O)c(=O)o1	
InChI=1S/C4H2O5/c5-2-1-8-3(6)4(7)9-2/h1,5H	InChI=1S/C4H2O5/c5-2-1-8-3(6)4(7)9-2/h1,5H
