11
gdb 130527	4.10433	1.82492	1.26324	3.3146	65.35	-0.2842	-0.1063	0.1779	861.9935	0.068508	-447.733711	-447.728089	-447.727145	-447.763675	21.724	
O	-0.0836976573	 1.2861192443	 0.009383418	-0.249044
N	 1.3555070755	 1.7466774137	-0.0008292038	 0.021003
N	 2.100241155	 0.7596678649	-0.0142795873	-0.152928
C	 1.3535617295	-0.4126337794	-0.0131855249	 0.304848
C	 0.0045816521	-0.0310583039	 0.001641139	 0.46569
N	-1.0045676726	-0.8919864439	 0.0064381249	-0.32379
C	-0.5870872299	-2.1601071035	-0.0044329218	-0.011311
C	 0.7699968863	-2.545382764	-0.0193474932	-0.03881
N	 1.772053867	-1.6664364488	-0.0239741717	-0.293572
H	-1.3604593545	-2.9229008649	-0.0013190151	 0.141182
H	 1.0342816289	-3.5979053346	-0.0276306541	 0.136732
245.9224	252.1545	362.6489	461.158	535.4757	578.2297	606.3953	664.0423	664.6626	790.3097	847.0295	889.2166	931.2	967.9484	992.9025	1070.1602	1213.5798	1278.2912	1314.6001	1379.4859	1390.0419	1509.6234	1525.557	1610.2279	1622.008	3175.0645	3193.5421
O1N=NC2=C1N=CC=N2	o1nnc2c1nccn2	
InChI=1S/C4H2N4O/c1-2-6-4-3(5-1)7-8-9-4/h1-2H	InChI=1S/C4H2N4O/c1-2-6-4-3(5-1)7-8-9-4/h1-2H
