11
gdb 25375	6.34999	0.93228	0.81293	0.0961	71.69	-0.2895	-0.1117	0.1778	1258.1343	0.066224	-451.586993	-451.579815	-451.578871	-451.619252	24.838	
O	-0.1721796658	 0.1003450768	-0.0021990349	-0.220845
C	 0.0188841847	 1.287376206	 0.0071114794	 0.088826
C	 1.3681891001	 1.894764373	-0.0025177835	 0.296759
N	 2.5408426409	 1.3249965599	-0.0206498037	-0.256687
C	 3.4328734115	 2.3623234324	-0.0213309829	-0.16244
C	 2.7433814028	 3.547119627	-0.0029187487	 0.226418
O	 1.4141900514	 3.2524222306	 0.0096331066	-0.179211
C	 3.1464051911	 4.8981965326	 0.0047808224	 0.237044
N	 3.5029569612	 5.9997807649	 0.010770406	-0.312206
H	-0.7976475705	 2.0365714257	 0.0230746974	 0.114254
H	 4.5008512127	 2.2132880311	-0.0346839481	 0.16809
91.5225	130.9662	189.6427	235.5852	267.2644	435.0234	498.0237	563.7232	625.3069	691.7537	704.0673	794.2203	903.2086	990.2656	1017.3183	1024.67	1167.89	1210.8812	1265.3112	1337.2342	1432.0954	1521.3056	1585.1051	1818.0419	2350.8184	2942.7392	3275.1407
O=CC1=NC=C(O1)C#N	O=Cc1ncc(o1)C#N	
InChI=1S/C5H2N2O2/c6-1-4-2-7-5(3-8)9-4/h2-3H	InChI=1S/C5H2N2O2/c6-1-4-2-7-5(3-8)9-4/h2-3H
