11
gdb 43663	3.22818	1.32149	1.0438	4.6809	58.4	-0.2917	-0.0814	0.2103	1063.0838	0.06429	-492.51476	-492.507342	-492.506398	-492.54742	26.383	
O	-0.0458934828	-0.0223413654	 0.0471772823	-0.287214
C	-0.0065739901	 1.1645669767	 0.0320117133	 0.324906
O	-1.0935181111	 1.980314989	 0.0335152102	-0.207964
C	-0.6733048194	 3.3485123198	-0.000216861	 0.028979
O	 0.75828888	 3.3547612122	 0.0160800722	-0.20799
C	 1.224368438	 2.0781838478	 0.0205397059	 0.324919
O	 2.3719217744	 1.7721904826	 0.0243767533	-0.287212
C	-1.1853342229	 4.0231529436	-1.182221241	 0.345359
C	-1.6227465726	 4.5987514188	-2.1390489229	-0.419369
H	-1.0229134391	 3.8311048073	 0.9182907389	 0.156422
H	-2.0059818044	 5.1046867375	-2.9921790113	 0.229165
67.3466	106.9646	194.8393	257.7785	336.8771	452.4067	470.8364	506.8995	626.3736	653.3319	682.2717	710.6243	736.2659	812.6005	837.7182	963.6603	965.771	1087.6435	1091.9252	1269.1241	1347.9816	1383.4383	1900.0726	1938.6748	2256.513	3066.1189	3495.8752
O=C1OC(OC1=O)C#C	O=C1OC(OC1=O)C#C	
InChI=1S/C5H2O4/c1-2-3-8-4(6)5(7)9-3/h1,3H	InChI=1S/C5H2O4/c1-2-3-8-4(6)5(7)9-3/h1,3H
