10
gdb 133425	6.17453	1.05012	0.89749	2.7448	62.91	-0.2832	-0.1178	0.1654	1118.7395	0.05462	-471.765243	-471.758698	-471.757753	-471.79673	23.345	
F	-0.0009339278	 0.0892368699	 0.0035585997	-0.024201
C	-0.0315446701	 1.3951120044	 0.0109688364	 0.409786
N	-1.2314345805	 1.9547489118	 0.029838737	-0.271332
C	-1.2098889852	 3.2775763096	 0.036611616	-0.030908
C	 0.0123318649	 3.9659474208	 0.0240944979	 0.212598
N	 1.179987134	 3.3066339697	 0.0051001782	-0.214499
N	 1.1596780927	 1.9874833531	-0.0016685956	-0.222362
C	 0.0564538981	 5.3970578229	 0.0311149705	 0.270897
N	 0.042114834	 6.5531802511	 0.0374540051	-0.301092
H	-2.1595554802	 3.8046178669	 0.0519864547	 0.171115
90.7503	156.1351	251.8217	399.7755	452.0529	466.7821	514.3788	566.8992	611.8411	668.5275	746.3999	839.9201	898.3586	992.1388	1064.4883	1140.5846	1246.22	1346.5851	1364.2364	1470.9694	1549.9973	1594.1667	2359.1275	3183.4405
FC1=NC=C(N=N1)C#N	Fc1ncc(nn1)C#N	
InChI=1S/C4HFN4/c5-4-7-2-3(1-6)8-9-4/h2H	InChI=1S/C4HFN4/c5-4-7-2-3(1-6)8-9-4/h2H
