11
gdb 130829	4.65689	1.05198	0.85813	1.3885	58.95	-0.2744	-0.1281	0.1464	1191.6455	0.064207	-488.641518	-488.634073	-488.633129	-488.674786	25.048	
O	-0.0617855978	 0.0063436528	 0.0009070493	-0.199817
C	-0.0312422255	 1.2044216116	 0.0086520922	 0.082742
C	 1.3210851859	 1.9594617389	-0.0006838193	 0.213754
O	 2.373362798	 1.3701939636	-0.0151772194	-0.260292
C	 1.2729762366	 3.4413602826	 0.0085804376	 0.250854
N	 0.1577659939	 4.1325145614	 0.0241726097	-0.130501
O	 0.5256852946	 5.4326131898	 0.0280301471	-0.134946
N	 1.8964118757	 5.5707785584	 0.0146568755	-0.050992
C	 2.3654881105	 4.3580434021	 0.0027663128	-0.087828
H	-0.9402197187	 1.8357531943	 0.0213039769	 0.132907
H	 3.4241446569	 4.1547689845	-0.0093462525	 0.184119
57.8865	85.0994	147.6988	201.8015	287.0926	382.6232	491.4816	555.5033	654.759	722.6088	833.8301	851.5689	923.8095	946.7969	955.9623	1014.1159	1025.5939	1076.5138	1205.9915	1394.741	1439.7201	1463.4276	1584.3066	1794.1295	1839.4492	2960.5642	3286.4845
O=CC(=O)C1=NON=C1	O=CC(=O)c1nonc1	
InChI=1S/C4H2N2O3/c7-2-4(8)3-1-5-9-6-3/h1-2H	InChI=1S/C4H2N2O3/c7-2-4(8)3-1-5-9-6-3/h1-2H
