11
gdb 21360	5.4827	2.28094	1.61081	5.0884	59.04	-0.2352	-0.0424	0.1928	699.5824	0.074644	-393.56253	-393.557075	-393.556131	-393.591841	21.191	
N	-0.0344264705	 1.367527357	 0.0102514907	-0.372871
C	 1.2708795802	 1.8134430359	-0.0001378115	-0.035876
C	 2.1630049947	 0.7519577541	-0.0148410991	-0.326487
C	 1.3426601364	-0.4014557516	-0.0130854532	 0.387303
C	 0.0225301353	-0.0012774185	 0.0021425454	 0.314581
N	-0.7763808944	-1.091082532	 0.0039538703	-0.219121
N	-0.0634413452	-2.1333259475	-0.0083765092	-0.043838
O	 1.3716034962	-1.728368388	-0.0207734216	-0.254679
H	-0.8558899449	 1.9453367391	 0.0215121814	 0.282961
H	 1.4782776984	 2.8722580202	 0.0036307419	 0.141092
H	 3.2372810139	 0.8259984214	-0.025089435	 0.126935
231.4584	341.5074	385.7353	442.8536	536.0096	612.1342	642.5515	701.1366	729.5576	760.8013	775.2255	834.4203	931.1312	997.199	1075.617	1117.3193	1221.1241	1294.3653	1376.7036	1404.3673	1480.093	1495.8568	1556.3275	1586.1057	3259.5811	3281.2906	3694.443
N1C=CC2=C1N=NO2	[nH]1ccc2c1nno2	
InChI=1S/C4H3N3O/c1-2-5-4-3(1)8-7-6-4/h1-2,5H	InChI=1S/C4H3N3O/c1-2-5-4-3(1)8-7-6-4/h1-2,5H
