11
gdb 131462	3.58161	1.13798	0.87264	2.5256	55.4	-0.2868	-0.0597	0.2271	1180.5099	0.064339	-525.78337	-525.775913	-525.774969	-525.816245	25.955	
O	 0.2093547055	 1.3066093353	 0.1630137855	-0.400946
C	 0.074375013	-0.0160342722	 0.0800955509	 0.317778
N	 0.1418900643	-0.7239051728	-1.0095145813	-0.164113
O	-0.0525942024	-2.0306906967	-0.609719433	-0.16346
N	-0.25417204	-2.1164945873	 0.7405970807	-0.150746
C	-0.1701802194	-0.8951459094	 1.1812691284	 0.374088
O	-0.3190202689	-0.5115761525	 2.4647152933	-0.222614
C	 0.0751532689	-1.3928484244	 3.4610440599	 0.169755
O	-0.1359024344	-1.1482264677	 4.6003901988	-0.228954
H	 0.3603304217	 1.6580745088	-0.7250542012	 0.326758
H	 0.5849445616	-2.2771871613	 3.0519319379	 0.142456
70.4919	116.3868	161.4269	276.25	301.1128	392.4472	467.4733	489.0385	550.2811	602.0438	712.6225	760.5256	879.6851	901.2362	961.277	1033.0071	1045.4045	1075.5291	1218.3167	1339.1291	1406.3238	1493.2079	1609.1081	1650.3863	1896.4286	3049.806	3782.5749
OC1=NON=C1OC=O	Oc1nonc1OC=O	
InChI=1S/C3H2N2O4/c6-1-8-3-2(7)4-9-5-3/h1H,(H,4,7)	InChI=1S/C3H2N2O4/c6-1-8-3-2(7)4-9-5-3/h1H,(H,4,7)
