11
gdb 130795	3.21967	1.5125	1.02907	4.3477	71.62	-0.2832	-0.1246	0.1586	1028.4115	0.063651	-451.48546	-451.478049	-451.477104	-451.51765	26.859	
O	 0.0198225729	-0.0106633093	 0.3676524537	-0.309564
C	 0.0304314411	 1.1427544023	 0.0484669579	 0.435677
O	-1.1407724732	 1.7559264514	-0.3326920851	-0.257746
N	-1.2283284932	 3.1449848307	-0.7350434725	 0.069193
N	-0.196370148	 3.8205217488	-0.7376105384	-0.106255
C	 1.0394963462	 3.3124170997	-0.3740528943	-0.045218
C	 1.2155560185	 2.0259718503	 0.0156592124	-0.102513
C	 2.4697924448	 1.4965902944	 0.3883740383	 0.290341
C	 3.5427487909	 1.0522505993	 0.7050713106	-0.355039
H	 1.8537889889	 4.0234910226	-0.4256341685	 0.158939
H	 4.4843023711	 0.6478170398	 0.9878190759	 0.222185
92.0726	140.0292	171.3351	287.6363	347.7816	444.3622	484.2018	526.0631	563.4843	623.2976	647.97	663.5008	664.5353	799.0108	811.1484	924.3616	945.6578	1052.5774	1114.5768	1259.6933	1373.2277	1565.6103	1637.7813	1849.6175	2229.2351	3225.5144	3495.2133
O=C1ON=NC=C1C#C	O=C1O[N]N=C[C]1C#C	
InChI=1S/C5H2N2O2/c1-2-4-3-6-7-9-5(4)8/h1,3H	InChI=1S/C5H2N2O2/c1-2-4-3-6-7-9-5(4)8/h1,3H
