11
gdb 130496	4.2415	1.69505	1.21106	0.6199	64.28	-0.2696	-0.1239	0.1456	886.7179	0.068273	-447.66347	-447.657856	-447.656912	-447.693562	21.526	
O	-0.0819231857	 1.2524907586	 0.0095697165	-0.11629
N	 1.1450274104	 1.8427999707	 0.0010083987	-0.171227
C	 1.9904137807	 0.8304462346	-0.0125200358	 0.285482
C	 3.4135944876	 0.7451940868	-0.0265915575	-0.025419
N	 4.0155570446	-0.4103117627	-0.0385675576	-0.189428
N	 3.2995408454	-1.597072688	-0.0381065304	-0.189427
C	 1.9966589379	-1.6033041769	-0.0256788867	-0.025419
C	 1.2576765885	-0.3840299499	-0.0120477182	 0.285483
N	-0.032064297	-0.1081726327	 0.0017703086	-0.171227
H	 4.0420204009	 1.6305334504	-0.0278355906	 0.158735
H	 1.5064511666	-2.5720366609	-0.0262009469	 0.158735
212.1835	215.1735	404.7462	455.4913	566.0978	589.0878	632.5831	650.9399	803.4725	830.0529	889.1378	925.45	925.9217	942.7933	947.3045	979.0327	1067.7177	1299.9067	1310.3716	1324.8681	1438.3079	1484.6827	1518.3324	1543.6309	1636.0678	3186.9306	3188.1235
O1N=C2C=NN=CC2=N1	o1nc2cnncc2n1	
InChI=1S/C4H2N4O/c1-3-4(2-6-5-1)8-9-7-3/h1-2H	InChI=1S/C4H2N4O/c1-3-4(2-6-5-1)8-9-7-3/h1-2H
