11
gdb 129055	2.91439	1.64955	1.26944	3.4989	62.59	-0.2952	-0.1231	0.1721	927.1251	0.063778	-484.799632	-484.792284	-484.791339	-484.832196	26.044	
N	-0.3074585293	 1.3674667304	 0.0511822061	-0.442402
C	-0.0885884151	 0.1249480881	 0.0803439108	 0.317146
C	-1.1758684174	-0.882959397	-0.0633736143	 0.009543
N	-1.3223803384	-1.8692595449	 0.7208523539	-0.210558
C	-0.5209964929	-1.9806024096	 1.8687971268	 0.462322
O	-0.9661473459	-2.1115348683	 2.9647311702	-0.271148
O	 0.8496148741	-2.0972616441	 1.6806042878	-0.266581
N	 1.6719720118	-1.3867421546	 0.6916254989	 0.070499
N	 1.2425638368	-0.4207308574	 0.0911293433	-0.098488
H	 0.5637507011	 1.8999176368	 0.1302163421	 0.259348
H	-1.8561191948	-0.7644808994	-0.9067579656	 0.17032
68.1177	80.5813	239.0846	306.8143	356.2809	365.4814	411.0658	573.8752	609.3342	658.9489	713.9794	730.2737	809.6647	859.4874	880.0267	940.1321	975.7586	1041.3418	1103.4742	1300.7467	1373.7161	1672.4703	1714.4527	1752.391	1867.48	3141.0315	3449.462
N=C1C=NC(=O)ON=N1	[NH][C]1C=NC(=O)ON=N1	
InChI=1S/C3H2N4O2/c4-2-1-5-3(8)9-7-6-2/h1,4H	InChI=1S/C3H2N4O2/c4-2-1-5-3(8)9-7-6-2/h1,4H
