10
gdb 131329	5.71044	1.40999	1.13078	1.9273	55.96	-0.2723	-0.0797	0.1927	927.3871	0.055615	-500.861989	-500.856049	-500.855105	-500.892342	22.379	
O	 0.0805898227	 1.2339316105	-0.1396358093	-0.379209
C	 0.0658961775	-0.0880926258	-0.0635922958	 0.456091
N	-0.0006382547	-0.8256665865	-1.1718191998	-0.322746
N	 0.011340244	-2.0593255762	-0.5923096332	 0.088944
N	-0.0263206468	-3.3299002184	-0.9882459102	-0.024404
N	 0.0147570451	-4.0693853548	 0.0237729809	 0.005004
O	 0.0861936855	-3.2053796906	 1.2360532449	-0.244356
C	 0.0799394038	-1.9796655444	 0.7581611318	 0.562159
N	 0.1173445944	-0.7345415491	 1.1603106834	-0.468362
H	 0.1305230285	 1.5750583654	 0.7628655073	 0.32688
158.1634	321.986	352.4898	370.789	439.2877	505.314	611.0689	626.9349	643.3328	730.7154	770.0277	806.3303	888.445	1005.5244	1022.8379	1184.6182	1262.4497	1343.7038	1413.2556	1424.7136	1457.8259	1615.4441	1655.4139	3801.6814
OC1=NN2N=NOC2=N1	Oc1nn2nnoc2n1	
InChI=1S/C2HN5O2/c8-1-3-2-7(4-1)5-6-9-2/h(H,4,8)	InChI=1S/C2HN5O2/c8-1-3-2-7(4-1)5-6-9-2/h(H,4,8)
