11
gdb 21623	3.98147	2.06772	1.36094	7.5337	56.7	-0.2659	-0.0816	0.1842	806.0977	0.072478	-430.729567	-430.722849	-430.721905	-430.760664	24.208	
N	 0.0014924157	 1.3283240002	 0.0079677964	-0.55034
C	-0.0016411065	-0.0179641437	 0.0007769455	 0.409199
N	-1.1357078569	-0.6591159832	 0.0038002699	-0.401096
C	-1.1144819747	-2.0273341426	-0.0036874421	 0.463504
O	-2.0579312308	-2.7578802906	-0.0022076265	-0.327637
O	 0.1629811304	-2.6849065059	-0.0144823089	-0.252612
N	 1.3392341801	-2.0008583577	-0.0175058795	-0.014757
C	 1.2712544803	-0.7185110096	-0.0102398552	-0.027435
H	 0.8528846231	 1.8602330122	 0.0060531869	 0.278887
H	-0.8825759806	 1.8112479445	 0.015645499	 0.284989
H	 2.2221985899	-0.1951556935	-0.0128489955	 0.1373
104.238	170.9508	193.0112	350.7109	401.1368	517.6375	538.3883	574.2699	588.2123	713.7127	748.4566	780.8562	824.8216	882.1273	973.8785	995.3749	1068.1152	1244.0726	1330.6763	1466.2494	1596.1183	1633.7389	1685.6481	1889.5344	3183.9842	3609.6999	3748.6012
NC1=NC(=O)ON=C1	Nc1nc(=O)onc1	
InChI=1S/C3H3N3O2/c4-2-1-5-8-3(7)6-2/h1H,(H2,4,6,7)	InChI=1S/C3H3N3O2/c4-2-1-5-8-3(7)6-2/h1H,(H2,4,6,7)
