10
gdb 23628	4.25487	2.0025	1.36165	4.0707	51.9	-0.274	-0.0575	0.2165	781.1573	0.061611	-454.767921	-454.762103	-454.761159	-454.798376	20.962	
F	 0.069862803	 0.0866650891	 0.0377850125	-0.028577
C	-0.0777231586	 1.3813756292	-0.0014811769	 0.412257
N	-1.1903352512	 1.9408245743	 0.1466505095	-0.347986
C	-1.214431597	 3.3508724188	 0.0822468096	 0.381515
N	-2.3134225317	 3.9647728024	 0.22560351	-0.480607
N	 0.0217454651	 4.0276306402	-0.145140438	-0.274878
C	 1.0646271498	 3.334304146	-0.2758541395	 0.129407
O	 1.1281356441	 1.9543327896	-0.2191310971	-0.196844
H	-2.1402618226	 4.9680120641	 0.1498191988	 0.235981
H	 2.0516030191	 3.7481862362	-0.451297899	 0.169731
93.1189	211.8295	389.9608	425.1879	539.3445	554.6781	581.1048	718.8263	787.9675	796.0922	917.8109	923.8516	955.2571	961.6568	1050.2031	1143.6438	1312.0798	1358.9838	1401.4152	1683.1402	1730.5568	1804.4502	3212.5584	3490.3499
FC1=NC(=N)N=CO1	FC1=N[C@H]([NH])N=CO1	
InChI=1S/C3H2FN3O/c4-2-7-3(5)6-1-8-2/h1,5H	InChI=1S/C3H3FN3O/c4-2-7-3(5)6-1-8-2/h1,3,5H/t3-/m1/s1
