11
gdb 21785	5.66787	1.68577	1.29932	4.8572	59.96	-0.2528	-0.0976	0.1552	841.06	0.072911	-393.585755	-393.57957	-393.578626	-393.616534	21.622	
O	-0.0768236843	-0.004786267	-0.0020269007	-0.220041
C	 0.0106105382	 1.1919160198	 0.0074519559	 0.130059
C	 1.309989061	 1.9570422579	 0.0003220877	 0.284855
N	 1.1861238168	 3.2912337181	 0.0120900804	-0.253393
C	 2.3320028411	 3.9572863314	 0.005320826	-0.007854
C	 3.5444482225	 3.2687043176	-0.0127042589	 0.030835
N	 3.5941605048	 1.9357998799	-0.0236437636	-0.157279
N	 2.4517226135	 1.2613464137	-0.0171038599	-0.197859
H	-0.8695464346	 1.8676791801	 0.0224524379	 0.10351
H	 2.2898190186	 5.0435756804	 0.0144354815	 0.142899
H	 4.5004496124	 3.782211578	-0.0185236763	 0.144269
88.2452	190.2781	220.3116	375.9288	453.3295	469.285	637.0078	713.2072	818.2121	858.989	888.7802	1017.1806	1038.3345	1047.2727	1084.8773	1120.0154	1192.1812	1279.8904	1381.175	1402.8668	1452.5065	1559.7759	1587.1492	1838.164	2929.6807	3164.4204	3195.0881
O=CC1=NC=CN=N1	O=Cc1nccnn1	
InChI=1S/C4H3N3O/c8-3-4-5-1-2-6-7-4/h1-3H	InChI=1S/C4H3N3O/c8-3-4-5-1-2-6-7-4/h1-3H
