10
gdb 21848	8.40997	1.22404	1.07841	1.5072	50.63	-0.3074	-0.0684	0.239	964.7808	0.059711	-450.561793	-450.555422	-450.554478	-450.593229	21.524	
O	-0.0421869625	-0.011899342	 0.133189594	-0.228817
C	-0.0324847068	 1.1591735631	-0.0438892047	 0.168485
O	 1.0926116482	 1.9079888948	 0.2707835489	-0.224363
C	 1.0226126775	 3.2505561452	 0.164320028	 0.418854
N	-0.0672098871	 3.9572912348	 0.2904388634	-0.158744
O	 0.3372897152	 5.2546364173	 0.1226998197	-0.147142
N	 1.6841547154	 5.3392077394	-0.0897331519	-0.039834
C	 2.127349817	 4.1152007174	-0.0700818189	-0.106729
H	-0.8392822359	 1.7774900736	-0.4621179726	 0.146504
H	 3.1688274792	 3.8771346565	-0.2136690359	 0.171786
73.1516	119.5672	182.9038	370.5489	432.8391	511.6897	634.9031	722.4527	838.7365	888.6913	904.6131	930.0233	1024.1667	1035.0538	1054.4161	1093.244	1209.5623	1403.2705	1442.4276	1490.1383	1613.3876	1895.7011	3056.5915	3282.0291
O=COC1=NON=C1	O=COc1nonc1	
InChI=1S/C3H2N2O3/c6-2-7-3-1-4-8-5-3/h1-2H	InChI=1S/C3H2N2O3/c6-2-7-3-1-4-8-5-3/h1-2H
