11
gdb 42261	3.04408	1.12719	1.00562	4.2408	62.4	-0.3213	-0.1225	0.1987	1136.9603	0.063775	-451.52923	-451.521063	-451.520119	-451.563265	27.391	
O	 0.2569281771	 0.2933848352	 0.8516961971	-0.246366
C	 0.160903574	 1.3038221452	 0.2100789365	 0.317162
C	 1.2855858542	 1.8437934853	-0.5751889842	 0.219692
N	 2.1493730009	 2.2915957313	-1.1998722756	-0.282921
C	-1.0885183761	 2.143994073	 0.1362127597	-0.057763
O	-2.2836445682	 1.5194689475	 0.5616479764	-0.191045
C	-1.7828882299	 2.553703495	 1.3916221796	-0.098167
C	-1.285988111	 2.184969763	 2.6989218309	 0.330407
N	-0.910329188	 1.9500410736	 3.765534999	-0.304771
H	-1.1696713685	 2.8080771078	-0.7234893289	 0.149025
H	-2.3443917445	 3.4859725929	 1.3690549494	 0.164745
37.6543	103.6686	141.784	205.0428	241.9817	283.1812	323.1357	470.6266	545.0745	568.4915	605.83	754.602	782.2594	885.1333	915.2932	986.9338	1060.8614	1099.6436	1125.4297	1266.4067	1373.2818	1429.2056	1806.5174	2340.2179	2369.2182	3130.2078	3142.301
O=C(C#N)C1OC1C#N	O=C(C#N)[C@H]1O[C@H]1C#N	
InChI=1S/C5H2N2O2/c6-1-3(8)5-4(2-7)9-5/h4-5H	InChI=1S/C5H2N2O2/c6-1-3(8)5-4(2-7)9-5/h4-5H/t4-,5+/m0/s1
