10
gdb 21741	3.94896	2.01581	1.33456	4.0905	62.06	-0.2223	-0.0828	0.1395	802.9995	0.060723	-413.47313	-413.466964	-413.46602	-413.503687	22.218	
O	-0.0825059666	 1.5401532243	 0.0103450903	-0.204419
C	 1.2706572377	 1.7870768262	-0.0011437945	 0.050072
C	 2.0164459666	 0.6712668314	-0.013013985	-0.307565
C	 1.0554911577	-0.4117275134	-0.0097934009	 0.206408
C	-0.2969741411	 0.1631739956	 0.0056281398	 0.403083
O	-1.3858550758	-0.3335979537	 0.0133793775	-0.351037
N	 1.410937039	-2.8188565533	-0.0252369423	-0.204366
N	 1.2630473967	-1.6962256776	-0.0179396329	 0.112006
H	 1.5477065527	 2.8288225753	 0.001212803	 0.155973
H	 3.0905616031	 0.5925640052	-0.0231343552	 0.139845
145.8517	151.7951	255.5214	435.8323	513.2514	542.1588	552.5402	627.2051	707.6532	755.8956	758.6468	834.537	861.4132	987.5474	1074.865	1160.4935	1238.4212	1321.6217	1459.6364	1618.8512	1868.8591	2225.2551	3267.5473	3288.7396
O1C=CC2=C1ON=N2	O1[CH]C=C(C1=O)[N][N]	
InChI=1S/C4H2N2O2/c1-2-7-4-3(1)5-6-8-4/h1-2H	InChI=1S/C4H2N2O2/c5-6-3-1-2-8-4(3)7/h1-2H
