11
gdb 21914	3.61874	1.87164	1.23361	1.7746	54.61	-0.2648	-0.0656	0.1992	867.0789	0.072257	-434.539298	-434.53278	-434.531835	-434.570275	23.279	
O	 0.1168336538	 1.3221567929	 0.1551730936	-0.406526
C	 0.0783942254	-0.0112181562	 0.067530855	 0.396576
N	 0.0763059837	-0.6389739175	-1.0815953288	-0.246695
O	 0.0307622684	-2.0039639246	-0.7410844881	-0.158417
C	 0.0080495061	-2.1247517213	 0.5797621134	 0.048777
C	 0.0357185295	-0.9009183884	 1.1886232121	-0.027383
C	 0.0240791711	-0.5983026703	 2.6197107578	 0.065563
O	-0.013670052	-1.4429308374	 3.4864401183	-0.274722
H	 0.1405542335	 1.6837181301	-0.7417915115	 0.320415
H	-0.0275553842	-3.1277110646	 0.9768643935	 0.18807
H	 0.0526581946	 0.4833251573	 2.8633798747	 0.094342
140.5853	160.1798	231.8174	336.4218	356.5908	463.6754	555.5344	596.9295	669.3086	737.3409	825.1635	896.6832	921.708	930.6536	1041.7284	1173.5896	1215.8241	1248.8049	1323.7977	1437.1041	1490.2885	1558.0212	1646.0417	1791.0031	2925.806	3269.4906	3773.0242
OC1=NOC=C1C=O	Oc1nocc1C=O	
InChI=1S/C4H3NO3/c6-1-3-2-8-5-4(3)7/h1-2H,(H,5,7)	InChI=1S/C4H3NO3/c6-1-3-2-8-5-4(3)7/h1-2H,(H,5,7)
