10
gdb 130572	3.83171	1.26785	0.95264	4.4146	59.25	-0.3207	-0.1253	0.1954	1081.0647	0.054396	-467.604358	-467.597331	-467.596387	-467.636874	23.796	
O	 0.0024027092	-0.038736699	 0.0030542794	-0.243192
C	-0.0515227247	 1.1631495744	 0.006665138	 0.231074
C	 1.1716440223	 1.9831905121	 0.0005102426	 0.272098
N	 2.1609784107	 2.580406132	-0.0046506737	-0.305082
C	-1.3285270366	 1.9209076662	 0.0175446405	 0.302657
N	-1.3483890325	 3.2325291192	 0.0212807579	-0.143832
O	-2.6954351096	 3.5313002004	 0.0313159462	-0.139574
C	-3.3444216724	 2.3547757831	 0.0326696991	 0.118403
N	-2.5671836111	 1.3229303301	 0.0244922773	-0.283639
H	-4.4236392654	 2.3904299114	 0.0402090028	 0.191087
61.0565	123.244	182.0613	247.1806	314.3388	453.1097	485.1871	640.3939	670.1604	676.9909	828.0979	911.0151	957.214	980.3535	986.8744	1065.6148	1110.154	1301.9818	1398.735	1492.703	1572.5887	1792.6709	2348.4007	3276.8127
O=C(C#N)C1=NOC=N1	O=C(C#N)c1nocn1	
InChI=1S/C4HN3O2/c5-1-3(8)4-6-2-9-7-4/h2H	InChI=1S/C4HN3O2/c5-1-3(8)4-6-2-9-7-4/h2H
