10
gdb 8620	2.26138	2.15261	1.45919	2.7843	53.13	-0.3312	-0.1027	0.2285	841.6035	0.057714	-413.459907	-413.452146	-413.451201	-413.492298	26.332	
O	 0.0036682927	 1.4496517311	 0.088692527	-0.409364
C	-0.0061133586	 0.0629937933	 0.0725086339	 0.022961
C	 0.7259031166	-0.4565183138	-1.2193587514	 0.143757
O	 1.1753104115	 0.3439989104	-1.9855594248	-0.220743
C	 0.7184460312	-0.5079228556	 1.2306105006	 0.28471
N	 1.3267903858	-0.9715780456	 2.0956685423	-0.295555
C	-1.3831915274	-0.4790510617	 0.0281607238	 0.284714
N	-2.4465895522	-0.9197449912	-0.0632591668	-0.295553
H	 0.4717938271	 1.7194324007	-0.7228680626	 0.318094
H	 0.7830209234	-1.5494851576	-1.3454656919	 0.16698
90.8468	127.0035	172.3207	194.4619	288.2636	324.6677	426.1189	480.4333	505.0024	543.0701	578.1052	603.2283	817.5393	948.9095	950.1804	1112.0734	1164.4807	1366.3558	1417.3797	1842.8212	2359.4406	2363.5917	3024.5892	3632.6554
OC(C=O)(C#N)C#N	OC(C=O)(C#N)C#N	
InChI=1S/C4H2N2O2/c5-1-4(8,2-6)3-7/h3,8H	InChI=1S/C4H2N2O2/c5-1-4(8,2-6)3-7/h3,8H
