11
gdb 129511	3.01037	1.64888	1.06535	4.855	54.17	-0.2993	-0.074	0.2253	990.2176	0.065043	-522.009512	-522.001884	-522.00094	-522.042393	26.602	
N	-0.1131543722	 1.3564130791	 0.0094346535	-0.572749
C	 0.1010077388	 0.0218778397	 0.0014238551	 0.526613
O	 1.1565022997	-0.5484326973	-0.0099083414	-0.325802
N	-1.1360684711	-0.7253570802	 0.008534631	-0.203263
N	-2.3498893543	-0.1153765851	 0.0204827407	-0.059884
N	-3.255327736	-0.9742719206	 0.0244400242	 0.04089
O	-2.6807313107	-2.2471117214	 0.0150236625	-0.235767
C	-1.3006279835	-2.1172551526	 0.0044462184	 0.578889
O	-0.5235805612	-3.0131003492	-0.0050504506	-0.328658
H	 0.6975868668	 1.9505626058	 0.0034859555	 0.286871
H	-1.0364387163	 1.7542843719	 0.0169217009	 0.292862
58.7845	128.0704	198.8499	206.2928	258.5864	380.5469	449.7384	547.472	548.4955	668.133	671.1863	745.0121	764.722	770.1898	811.7195	1018.0272	1059.8234	1089.0306	1212.6337	1271.8301	1368.0669	1533.7701	1606.1305	1861.102	1953.1928	3616.6972	3752.5218
NC(=O)N1N=NOC1=O	NC(=O)n1nnoc1=O	
InChI=1S/C2H2N4O3/c3-1(7)6-2(8)9-5-4-6/h(H2,3,7)	InChI=1S/C2H2N4O3/c3-1(7)6-2(8)9-5-4-6/h(H2,3,7)
