9
gdb 132229	2.03071	1.99575	1.00654	3.9455	47.25	-0.2989	-0.0645	0.2344	984.7456	0.041399	-573.916333	-573.909889	-573.908945	-573.948076	22.647	
F	 0.1428084576	 0.11848473	 0.0018452109	-0.013529
C	-0.0474359114	 1.4018117917	 0.0111295039	 0.43137
N	-1.1798994761	 1.938013749	 0.0295808824	-0.387469
C	-1.2348486733	 3.3644177913	 0.0377375046	 0.425309
O	-2.2757102368	 3.9484871897	 0.0554422734	-0.28886
N	 0.0111777063	 4.0607946659	 0.023741544	-0.38747
C	 1.0589194846	 3.3735994476	 0.0057031209	 0.43137
F	 2.2533341211	 3.8799381992	-0.0084991797	-0.013528
O	 1.1657831881	 2.0173299956	-0.0025769704	-0.197193
84.8383	193.2141	213.6069	364.6871	406.0396	541.8616	543.6808	652.9677	671.4342	714.8525	743.6985	812.1693	902.0712	979.633	1063.9596	1201.1072	1279.3624	1400.5717	1713.5315	1804.585	1884.0289
FC1=NC(=O)N=C(F)O1	Fc1nc(=O)nc(F)o1	
InChI=1S/C3F2N2O2/c4-1-6-3(8)7-2(5)9-1	InChI=1S/C3F2N2O2/c4-1-6-3(8)7-2(5)9-1
