11
gdb 130756	5.93218	1.08218	0.91522	5.3902	70.06	-0.2835	-0.1218	0.1616	1143.4459	0.064336	-451.497655	-451.490386	-451.489442	-451.530193	26.268	
O	 0.0534833771	-0.0549891466	 0.0020964102	-0.302463
C	 0.0569770351	 1.1349611669	 0.0088684279	 0.481786
O	-1.2004624185	 1.7778279875	 0.0284855254	-0.231197
N	-1.3647517496	 3.1327826962	 0.0371604264	-0.099869
C	-0.2765922564	 3.8453972684	 0.0261894395	 0.159183
C	 1.0329679654	 3.2111863847	 0.0058920301	-0.015786
N	 1.1984852484	 1.9390319331	-0.0024228232	-0.281292
C	-0.3901252822	 5.2608842413	 0.0348687908	 0.260934
C	-0.4166391955	 6.4631174281	 0.0413388876	-0.351757
H	 1.9159030916	 3.850005537	-0.0024033507	 0.157934
H	-0.4606231154	 7.5252462935	 0.047478136	 0.222527
40.6809	143.5051	187.7782	335.7196	448.2754	452.7815	464.691	537.4633	580.5508	636.0652	653.5378	691.1384	726.9602	793.9825	807.0935	889.2835	1001.7678	1054.7149	1122.0302	1265.5487	1417.8961	1540.4062	1684.5421	1887.5505	2238.8777	3141.3459	3496.1512
O=C1ON=C(C=N1)C#C	O=c1onc(cn1)C#C	
InChI=1S/C5H2N2O2/c1-2-4-3-6-5(8)9-7-4/h1,3H	InChI=1S/C5H2N2O2/c1-2-4-3-6-5(8)9-7-4/h1,3H
