10
gdb 21408	4.14372	2.06569	1.37849	2.4237	54.01	-0.2997	-0.1124	0.1872	782.1313	0.060418	-446.762348	-446.755988	-446.755043	-446.793388	22.687	
N	-0.1060219328	 1.3198875662	 0.1371002736	-0.49681
C	-0.0220981743	 0.0686100542	-0.0200987053	 0.481832
N	-1.1324747441	-0.7468004966	-0.0732527237	-0.406199
C	-1.1147236498	-2.1130101755	-0.241769413	 0.528254
O	-2.090879135	-2.8008805332	-0.284870321	-0.344278
O	 0.1357499528	-2.6509540538	-0.3606570256	-0.269271
N	 1.3470507245	-1.809363589	-0.3086137252	 0.077774
N	 1.2327884049	-0.6066330479	-0.1561282349	-0.123966
H	 0.8246998499	 1.7338443963	 0.1485341133	 0.257297
H	-2.0416621759	-0.3139781906	 0.0183547518	 0.295366
79.8508	132.0433	349.3957	390.6576	438.8566	509.5869	566.0106	635.3275	688.791	747.2234	756.099	799.3784	882.1038	925.4142	971.3375	1121.9471	1265.288	1387.903	1413.0006	1673.0985	1762.3389	1888.893	3522.5298	3613.2788
N=C1NC(=O)ON=N1	[NH]c1[nH]c(=O)onn1	
InChI=1S/C2H2N4O2/c3-1-4-2(7)8-6-5-1/h(H2,3,4,7)	InChI=1S/C2H5N4O2/c3-1-4-2(7)8-6-5-1/h1,3,5-6H,(H,4,7)
