11
gdb 27871	2.09379	1.69177	0.93572	1.2608	58.35	-0.2813	-0.0566	0.2247	1104.2231	0.065624	-525.910186	-525.902322	-525.901377	-525.943768	27.186	
O	-0.2488503505	 1.4080000389	 0.0093974671	-0.362834
C	 0.018882435	 0.0949170119	 0.0014738381	 0.4637
N	-1.1413749368	-0.6345413079	 0.0035446692	-0.362277
C	-1.0790160929	-1.9193467369	-0.0035041095	 0.507079
O	-2.2397905495	-2.5709124224	-0.0009742365	-0.356267
N	-0.0059358194	-2.7787127239	-0.0134937103	-0.45804
C	 1.2173646819	-2.5905159006	-0.0186501646	 0.566219
O	 2.3599702721	-2.7753125305	-0.0253693598	-0.23446
O	 1.1735871531	-0.3174749265	-0.0065927501	-0.390407
H	 0.6080525996	 1.8579193516	 0.0072901639	 0.309506
H	-2.0497759628	-3.5191658436	-0.0069009774	 0.317782
50.0443	111.8623	136.95	188.224	290.8019	426.1359	446.1483	547.5315	568.2532	575.2565	622.4343	635.5482	720.6154	748.9865	819.942	856.4213	1030.0495	1201.3552	1277.7895	1348.4564	1440.6372	1491.773	1669.4574	1740.8275	2302.1054	3776.7421	3781.3909
OC1=NC(O)=NC(=O)O1	OC(=O)[N]C(=[N]=C=O)O	
InChI=1S/C3H2N2O4/c6-1-4-2(7)9-3(8)5-1/h(H2,4,5,6,7,8)	InChI=1S/C3H2N2O4/c6-1-4-2(7)5-3(8)9/h7H,(H,8,9)
