11
gdb 129122	3.18865	1.52821	1.2139	2.8135	65.21	-0.2864	-0.1228	0.1636	951.0548	0.063095	-484.804483	-484.796778	-484.795834	-484.837381	26.903	
N	 0.0992549256	 1.3472656378	 0.1923774735	-0.44308
C	-0.0426694249	 0.1063966398	 0.0955696077	 0.418485
N	-1.2239121495	-0.5653393157	-0.1442643777	-0.169147
C	-1.3443001626	-1.4219272405	-1.0780742152	-0.06767
C	-0.339717418	-1.7321239347	-2.1615865929	 0.400702
O	-0.7261878149	-2.1618499612	-3.2184453707	-0.301289
O	 0.9434056258	-1.4458458758	-1.9289969335	-0.306339
N	 1.591006213	-1.5301902069	-0.3821582515	 0.053547
N	 1.08577103	-0.815379109	 0.4066949665	-0.020295
H	 1.0446095109	 1.6163441627	 0.4615695347	 0.263409
H	-2.2952110254	-1.9441628666	-1.1790140108	 0.171677
57.7043	118.9914	155.6787	260.6471	289.5155	332.6582	426.5488	544.277	549.4589	611.7266	700.7364	736.7105	771.315	815.5285	867.1049	884.0857	968.7387	1002.1615	1190.1845	1260.5132	1374.5198	1707.6899	1772.5881	1786.8255	1840.9642	3152.3396	3516.2645
N=C1N=CC(=O)ON=N1	[NH][C]1N=CC(=O)O[N][N]1	
InChI=1S/C3H2N4O2/c4-3-5-1-2(8)9-7-6-3/h1,4H	InChI=1S/C3H2N4O2/c4-3-5-1-2(8)9-7-6-3/h1,4H
