11
gdb 131328	5.76511	1.38447	1.11638	7.1095	57.31	-0.2684	-0.0124	0.256	949.7681	0.068665	-481.007527	-481.001368	-481.000423	-481.038018	23.385	
O	-0.0366328327	 1.2606300581	 0.0099775289	-0.400037
C	 0.0410731261	-0.0634692485	 0.0024396683	 0.509651
N	 1.1417071948	-0.7706596853	-0.0085804628	-0.345367
N	 0.6354581428	-2.0524799982	-0.0122281841	 0.102499
N	 1.1307903432	-3.3057058165	-0.0227068843	-0.147956
N	 0.0728498611	-4.0669517711	-0.0183923416	-0.102329
N	-1.1081799407	-3.3653369247	-0.0077718523	-0.352728
C	-0.704666458	-2.1157514485	-0.0037382574	 0.54445
N	-1.1197666464	-0.8026717522	 0.0057759693	-0.452386
H	 0.8640196891	 1.6133496493	 0.0060449962	 0.336726
H	-2.0598777891	-0.4463245624	 0.0138993096	 0.307478
153.4947	320.3216	339.4826	358.369	413.9259	423.9144	539.5853	606.9792	692.6301	711.4691	761.6725	818.5293	869.2659	976.437	1023.8917	1089.9319	1147.7717	1202.6355	1275.433	1288.7515	1342.8292	1473.3883	1552.5138	1626.1311	1653.8247	3688.2462	3788.8699
OC1=NN2N=NN=C2N1	Oc1nn2nnnc2[nH]1	
InChI=1S/C2H2N6O/c9-2-3-1-4-6-7-8(1)5-2/h(H2,3,4,5,7,9)	InChI=1S/C2H2N6O/c9-2-3-1-4-6-7-8(1)5-2/h(H2,3,4,5,7,9)
