11
gdb 132262	3.77114	1.27917	0.95517	1.7936	67.71	-0.2922	-0.0866	0.2056	1087.2133	0.066199	-455.710291	-455.703487	-455.702543	-455.741902	24.798	
F	-0.0050221513	 0.0849911266	 0.003451428	-0.034318
C	-0.0149948385	 1.3959971881	 0.0105053463	 0.354147
N	-1.2051981898	 1.9635072735	 0.0299746324	-0.326222
C	-1.1594638709	 3.304968586	 0.0365246363	 0.177735
N	-0.0340692598	 4.0365486557	 0.0247560022	-0.27609
C	 1.0846876819	 3.3182204325	 0.0055034942	 0.077401
N	 1.1688666891	 1.986131597	-0.0027019149	-0.293437
C	-2.4050450219	 4.0043739795	 0.057193946	 0.275827
C	-3.4515368451	 4.5951025247	 0.0745644509	-0.317285
H	 2.0233778247	 3.8662976657	-0.0045948389	 0.14778
H	-4.3772964484	 5.1170793305	 0.0899432275	 0.214462
127.4752	149.1606	195.2425	332.7989	438.4182	485.5105	515.3352	589.3473	594.4215	660.1036	687.9424	757.655	797.8919	857.4558	999.3614	1009.3323	1022.2759	1219.0012	1291.0386	1332.3653	1432.7895	1471.9179	1565.4835	1605.908	2244.7835	3177.6225	3497.4977
FC1=NC(=NC=N1)C#C	Fc1nc(ncn1)C#C	
InChI=1S/C5H2FN3/c1-2-4-7-3-8-5(6)9-4/h1,3H	InChI=1S/C5H2FN3/c1-2-4-7-3-8-5(6)9-4/h1,3H
