11
gdb 133438	3.09472	1.39734	0.96267	1.8656	59.03	-0.2557	-0.0854	0.1703	1051.3127	0.063902	-537.902169	-537.895247	-537.894303	-537.933968	25.654	
F	 0.0468030402	 0.0635513099	 0.1639001105	-0.018832
C	-0.0225265406	 1.3707501166	 0.0848980252	 0.28151
C	-1.1900307972	 2.0286196413	 0.0550532799	-0.38599
C	-1.101911983	 3.4599735598	-0.0328775595	 0.372298
F	-2.2458239819	 4.1236613601	-0.0633329433	-0.048344
N	-0.0410206845	 4.172203564	-0.0855791063	-0.13849
O	 1.16275367	 3.4621037898	-0.0529070133	-0.289002
C	 1.2523508838	 2.0840956911	 0.0302908124	 0.336048
N	 2.3661711584	 1.4857627214	 0.056992113	-0.512046
H	-2.1504305803	 1.5329107689	 0.0936418371	 0.159206
H	 3.1405961751	 2.149711117	 0.0097643844	 0.243643
88.2221	195.1616	313.8281	348.7419	356.8064	403.2123	461.7303	505.6584	582.7799	653.2696	695.6713	750.278	816.3145	863.0075	881.6017	933.0587	1031.3586	1076.9932	1195.1179	1235.8276	1406.4401	1435.5501	1645.7788	1708.755	1742.7123	3233.5219	3488.5055
FC1=CC(F)=NOC1=N	FC1=C(ON=C([CH]1)F)[NH]	
InChI=1S/C4H2F2N2O/c5-2-1-3(6)8-9-4(2)7/h1,7H	InChI=1S/C4H2F2N2O/c5-2-1-3(6)8-9-4(2)7/h1,7H
