11
gdb 130544	3.70276	1.23919	0.92846	0.4792	66.57	-0.2855	-0.0916	0.1939	1122.5035	0.0637	-451.493135	-451.485536	-451.484592	-451.525924	26.67	
O	-0.0124316002	-0.0500034998	 0.0039706638	-0.298503
C	-0.0312943195	 1.1667774523	 0.0076735624	 0.146619
C	 1.1755131606	 1.9656575884	 0.0011461062	 0.290389
C	 2.1911603162	 2.6101046421	-0.0044049274	-0.410437
C	-1.3068181978	 1.9008473329	 0.0190952905	 0.17376
C	-2.5788075025	 1.3929387006	 0.026990179	 0.007819
O	-3.4513177245	 2.3690973955	 0.0357532404	-0.168417
N	-2.640797553	 3.6186787233	 0.033762261	-0.001708
N	-1.4489538997	 3.2734873845	 0.0241787826	-0.164712
H	 3.0895202696	 3.1790542559	-0.0091561592	 0.222934
H	-2.9385107392	 0.3761396744	 0.0266672807	 0.202255
68.4635	113.8287	186.573	231.0581	279.7393	402.1778	444.0678	494.7181	613.0566	665.3281	678.0905	687.3226	716.5037	790.8805	920.5719	956.1472	981.8008	1095.7114	1170.5599	1291.0631	1362.6911	1518.9421	1562.3263	1733.2032	2222.0314	3281.8217	3492.3868
O=C(C#C)C1=CON=N1	O=C(C#C)c1conn1	
InChI=1S/C5H2N2O2/c1-2-5(8)4-3-9-7-6-4/h1,3H	InChI=1S/C5H2N2O2/c1-2-5(8)4-3-9-7-6-4/h1,3H
