10
gdb 23825	3.99238	2.00968	1.33677	3.0208	53.38	-0.272	-0.1043	0.1677	792.3119	0.059882	-454.713443	-454.707377	-454.706433	-454.744297	21.883	
F	 0.0582092346	 0.072274256	 0.0021969544	-0.040181
C	-0.0520212637	 1.3854550045	 0.011362053	 0.337893
N	-1.200628832	 1.9157791613	 0.029458363	-0.309055
C	-1.2577017337	 3.3019666935	 0.0380971042	 0.466468
N	-2.3440613622	 3.9358799704	 0.0561312621	-0.492051
O	-0.0329336567	 4.0244263823	 0.0261532452	-0.271414
N	 1.190115718	 3.4088673048	 0.0065428503	 0.000518
C	 1.1935456358	 2.1246284415	-0.0008756298	-0.10401
H	-2.178760636	 4.9419799339	 0.0597617648	 0.24326
H	 2.1587579459	 1.6330707216	-0.0164466673	 0.168572
66.1954	212.1079	363.9241	397.8296	494.7398	541.4025	577.5188	702.5344	724.991	749.2932	851.1832	862.1072	887.8582	958.6235	1001.6362	1107.6805	1234.5913	1297.1451	1397.8338	1626.7659	1735.342	1766.2175	3216.5444	3511.1364
FC1=NC(=N)ON=C1	F[C]1N=C([NH])ON=C1	
InChI=1S/C3H2FN3O/c4-2-1-6-8-3(5)7-2/h1,5H	InChI=1S/C3H2FN3O/c4-2-1-6-8-3(5)7-2/h1,5H
