11
gdb 53775	4.54709	0.755	0.64749	4.945	73.	-0.2756	-0.1296	0.146	1553.628	0.064488	-451.565265	-451.556513	-451.555568	-451.599875	29.647	
N	-0.0368299062	 1.328433804	 0.0085748498	-0.542836
C	 0.0903113096	-0.0133961034	 0.0000197129	 0.375536
O	 1.1206851792	-0.6538106209	-0.0130483009	-0.339892
C	-1.2772020142	-0.7237492372	 0.0095036984	 0.061975
O	-2.3270926004	-0.1207721576	 0.0226879665	-0.274537
C	-1.2095753148	-2.170418136	 0.0015939689	 0.105158
C	-1.23137037	-3.3797438397	-0.004293825	 0.144521
C	-1.243182345	-4.7438343859	-0.0110627697	 0.218155
N	-1.256481323	-5.9052360332	-0.01679447	-0.313186
H	 0.784801011	 1.9091881451	 0.0042123691	 0.279182
H	-0.9561698162	 1.7400311747	 0.0198834901	 0.285923
53.2509	65.2312	122.0041	199.6242	284.6208	287.2423	342.9161	375.3532	447.4537	462.6541	559.4104	593.5008	633.8071	641.0439	646.5845	837.4936	946.0502	1091.4679	1205.7408	1375.9378	1594.9873	1758.8439	1811.9873	2254.0503	2384.7523	3596.2593	3734.6212
NC(=O)C(=O)C#CC#N	NC(=O)C(=O)C#CC#N	
InChI=1S/C5H2N2O2/c6-3-1-2-4(8)5(7)9/h(H2,7,9)	InChI=1S/C5H2N2O2/c6-3-1-2-4(8)5(7)9/h(H2,7,9)
