11
gdb 131448	3.61972	1.83284	1.21674	2.6283	57.18	-0.2715	-0.0293	0.2422	886.8592	0.068717	-484.840334	-484.834369	-484.833425	-484.870754	22.637	
O	-0.0794012282	 1.3040854059	 0.0098541384	-0.386727
C	-0.023566354	-0.0155532962	 0.0024084036	 0.507224
N	 1.0606070581	-0.740408393	-0.0065037143	-0.246737
O	 0.6206469069	-2.1084648101	-0.0119362645	-0.24619
C	-0.7125804365	-2.0797097679	-0.0056734659	 0.552759
N	-1.7014107099	-2.9343398659	-0.005778668	-0.392185
C	-2.7705468448	-2.0657200692	 0.0038448527	 0.05162
N	-2.5128342271	-0.7609442614	 0.0097910854	-0.264764
N	-1.1443244884	-0.7963602635	 0.003289071	-0.059277
H	 0.8256978609	 1.6475127875	 0.0075781364	 0.336697
H	-3.7908038169	-2.4205499162	 0.0066072752	 0.147579
176.2047	264.1751	296.4846	391.1232	451.6907	586.5847	649.1108	665.956	673.7155	716.599	770.2711	810.3163	917.3527	922.5832	976.1394	1153.282	1201.9723	1218.6621	1267.8033	1304.6223	1396.0178	1451.1009	1575.3582	1613.9031	1672.5239	3263.0374	3776.5399
OC1=NOC2=NC=NN12	Oc1noc2ncnn12	
InChI=1S/C3H2N4O2/c8-2-6-9-3-4-1-5-7(2)3/h1H,(H,6,8)	InChI=1S/C3H2N4O2/c8-2-6-9-3-4-1-5-7(2)3/h1H,(H,6,8)
