11
gdb 132336	2.02986	1.91182	0.98453	3.3223	57.13	-0.2594	-0.0558	0.2036	1043.353	0.065607	-533.863052	-533.856209	-533.855265	-533.894642	25.408	
O	 0.0232550018	 1.3260576349	 0.0076963289	-0.391292
C	-0.003745222	-0.005885061	 0.0009343787	 0.460452
C	-1.1948908186	-0.6746039826	 0.0037210367	-0.367156
C	-1.21987551	-2.0952497982	-0.0035645914	 0.447078
O	-2.1004895305	-2.8926335379	-0.0026609491	-0.307083
O	 0.1581909059	-2.6791390121	-0.0135550541	-0.241881
C	 1.1901117625	-1.8909730175	-0.0148273596	 0.430358
F	 2.313076171	-2.5569538963	-0.0241460017	-0.026202
N	 1.2273458925	-0.609409595	-0.0085446892	-0.463592
H	 0.9536203072	 1.5931154498	 0.0042099718	 0.316204
H	-2.1389163598	-0.150474154	 0.0114450091	 0.143114
152.4611	182.2532	211.1925	337.4152	370.6403	454.6205	539.9993	547.6012	600.8376	639.8743	716.0255	718.248	784.6511	788.6977	829.9356	980.8097	1093.6029	1129.8131	1217.4756	1323.5001	1426.4902	1471.9123	1631.3239	1710.0641	1923.5799	3248.3079	3766.5991
OC1=CC(=O)OC(F)=N1	Oc1cc(=O)oc(F)n1	
InChI=1S/C4H2FNO3/c5-4-6-2(7)1-3(8)9-4/h1,7H	InChI=1S/C4H2FNO3/c5-4-6-2(7)1-3(8)9-4/h1,7H
