11
gdb 20525	5.11527	1.63667	1.24948	2.7221	53.49	-0.2864	-0.1002	0.1862	874.698	0.07009	-430.674754	-430.667765	-430.666821	-430.706764	23.704	
C	-0.0376268823	 1.5000591157	 0.010126051	-0.484693
C	 0.0374977602	-0.0069853165	 0.001756508	 0.33444
O	 1.0645468322	-0.6387174736	-0.0097300523	-0.266789
C	-1.2731012287	-0.7347969775	 0.0094943146	 0.312597
N	-2.4475859122	-0.1660148302	 0.0225605942	-0.122837
O	-3.3300471275	-1.1682370637	 0.0250442949	-0.137981
N	-2.6102445994	-2.3974471763	 0.0128311612	 0.057503
N	-1.3950774022	-2.1171891177	 0.0037779736	-0.169427
H	 0.9732777841	 1.9071955344	 0.0036430948	 0.154492
H	-0.5949284828	 1.8580789721	-0.8617261483	 0.161332
H	-0.5800150814	 1.8490814234	 0.8949406584	 0.161363
61.1382	124.6832	188.2161	200.3261	366.5699	497.1632	557.3816	568.8249	627.9904	678.3897	764.1034	959.8329	979.8025	1043.8587	1049.9597	1099.8381	1157.7918	1324.695	1393.0326	1457.5263	1468.3144	1502.0893	1556.3949	1815.0626	3047.6661	3110.3675	3164.8835
CC(=O)C1=NON=N1	CC(=O)c1nonn1	
InChI=1S/C3H3N3O2/c1-2(7)3-4-6-8-5-3/h1H3	InChI=1S/C3H3N3O2/c1-2(7)3-4-6-8-5-3/h1H3
