10
gdb 23781	3.40442	2.38652	1.40301	4.8754	51.3	-0.268	-0.059	0.2089	758.7294	0.060844	-458.59138	-458.585487	-458.584543	-458.621726	21.382	
F	-0.0295417977	 0.0344008503	 0.00420947	-0.041552
C	-0.0389626954	 1.356881086	 0.0110134031	 0.097117
C	-1.199403401	 2.0276365224	 0.0293965844	-0.052642
O	-1.2226412012	 3.388566467	 0.0365090286	-0.164233
C	-0.0215390492	 4.0117654299	 0.024015503	 0.135741
N	 1.1294403151	 3.4738665203	 0.0064520435	-0.300905
C	 1.2529261449	 2.0619174185	-0.0020372688	 0.321679
O	 2.321227644	 1.5019036295	-0.0190339948	-0.324772
H	-2.1831328435	 1.5792372921	 0.0398575931	 0.167524
H	-0.159279066	 5.089078224	 0.031157838	 0.162042
107.6698	300.3141	315.1875	403.3498	485.9639	531.7926	541.661	603.2996	754.7344	808.452	890.3619	905.6279	970.5746	1020.144	1093.186	1248.1263	1311.31	1395.0211	1414.9198	1647.7603	1713.3868	1811.0358	3193.3305	3240.1213
FC1=COC=NC1=O	Fc1cocnc1=O	
InChI=1S/C4H2FNO2/c5-3-1-8-2-6-4(3)7/h1-2H	InChI=1S/C4H2FNO2/c5-3-1-8-2-6-4(3)7/h1-2H
