11
gdb 8971	5.55922	1.03926	0.88037	4.0119	59.66	-0.2955	-0.076	0.2195	1181.0194	0.069605	-397.385085	-397.377086	-397.376141	-397.418678	26.702	
O	-0.0269039814	-0.1077804603	 0.0037041175	-0.32766
C	 0.0080097051	 1.0921354372	 0.0055109236	 0.377524
O	 1.0976717614	 1.8596731565	-0.0028954236	-0.221523
C	 2.3534242338	 1.1244428018	-0.0152905821	-0.241272
C	 3.4449297889	 2.0772520963	-0.0192626546	 0.287133
C	 4.3720016194	 2.8389583434	-0.0228446997	-0.39403
C	-1.1956423041	 1.9316172206	 0.0180446707	 0.265319
N	-2.175803126	 2.5417774601	 0.0280885994	-0.299586
H	 2.3849124313	 0.474018023	 0.8646741752	 0.168527
H	 2.3718806505	 0.4817525473	-0.9013152633	 0.168446
H	 5.1907455411	 3.516203364	-0.0259899132	 0.217121
37.2769	100.5356	136.6575	204.1638	275.0872	324.2129	339.0788	464.5446	548.1567	624.8813	632.0669	703.5213	775.2759	907.8093	961.6557	1011.3093	1026.709	1250.3927	1261.9584	1398.4304	1482.9753	1817.7029	2256.0553	2363.3459	3053.734	3093.2409	3502.439
O=C(OCC#C)C#N	O=C(OCC#C)C#N	
InChI=1S/C5H3NO2/c1-2-3-8-5(7)4-6/h1H,3H2	InChI=1S/C5H3NO2/c1-2-3-8-5(7)4-6/h1H,3H2
