10
gdb 20486	5.22225	2.27281	1.60017	4.6443	48.75	-0.2651	-0.0408	0.2243	693.1758	0.061583	-450.516838	-450.511337	-450.510393	-450.54689	19.823	
C	 0.0359025232	 1.3948981258	-0.1083082552	 0.018158
O	 1.3667627417	 1.878544833	 0.2106338913	-0.259778
C	 2.0104691507	 0.7986111257	 0.688392433	 0.398401
N	 3.1809856951	 0.5125673985	 1.1440838687	-0.215724
O	 3.0585751129	-0.858672428	 1.4413955995	-0.180166
N	 1.7789111369	-1.3671152828	 1.1453833619	-0.215724
C	 1.1707974631	-0.3270906086	 0.689169701	 0.398401
O	-0.0481327788	-0.0183246547	 0.2119474698	-0.259777
H	-0.6936620086	 1.9395085439	 0.4965669028	 0.158104
H	-0.1423434762	 1.5271121973	-1.1785817228	 0.158105
81.4622	294.2138	361.3291	515.4205	546.0905	688.1448	731.6755	762.6721	775.699	824.1713	844.2315	924.8665	1041.4029	1074.3476	1120.7035	1195.3338	1218.8693	1438.3785	1504.001	1531.6231	1663.9158	1705.4447	3061.6404	3126.2547
C1OC2=NON=C2O1	C1Oc2nonc2O1	
InChI=1S/C3H2N2O3/c1-6-2-3(7-1)5-8-4-2/h1H2	InChI=1S/C3H2N2O3/c1-6-2-3(7-1)5-8-4-2/h1H2
