10
gdb 132691	3.19394	1.38505	0.9661	1.1146	52.83	-0.2727	-0.0722	0.2005	1020.5789	0.052933	-562.005307	-561.998945	-561.998001	-562.036507	23.521	
F	 0.0265251324	 0.0592393975	 0.0034039362	-0.05288
C	-0.0138645004	 1.3806119077	 0.0104836379	 0.313669
C	-1.2359489641	 2.0393247528	 0.0306036745	-0.148959
N	-1.266278952	 3.3762207271	 0.0376237124	-0.263515
C	-0.1249425234	 4.0104499176	 0.0250057567	 0.203957
F	-0.1279109396	 5.3323863502	 0.0315721482	-0.040002
C	 1.0960241743	 3.3205292823	 0.0047492025	 0.199528
F	 2.2306357193	 3.9920702503	-0.0076097131	-0.031412
N	 1.1461934212	 2.0133568074	-0.0024015568	-0.329901
H	-2.1744299677	 1.4977586072	 0.0408777015	 0.149516
130.2039	249.8997	297.3982	363.2463	415.6845	496.0713	514.9021	552.7065	621.8687	681.5499	729.5044	780.2386	826.5923	911.5769	1044.4183	1202.9659	1270.5225	1318.6329	1365.7463	1489.2247	1510.3206	1621.8298	1633.9694	3205.7464
FC1=CN=C(F)C(F)=N1	Fc1cnc(F)c(F)n1	
InChI=1S/C4HF3N2/c5-2-1-8-3(6)4(7)9-2/h1H	InChI=1S/C4HF3N2/c5-2-1-8-3(6)4(7)9-2/h1H
