11
gdb 130683	5.53112	1.37055	1.09839	5.9918	58.43	-0.2335	-0.0217	0.2118	960.5491	0.068322	-484.871475	-484.865051	-484.864107	-484.902497	23.755	
O	 0.0316948683	-0.0020979968	 0.0030834236	-0.357741
C	-0.0206036227	 1.1884098571	 0.0095519582	 0.472405
N	-1.1699562383	 2.0020309303	 0.0295208326	-0.517827
C	-0.7530228131	 3.3137315269	 0.0313537967	 0.440893
C	 0.6088744929	 3.3102785166	 0.0125547431	 0.370498
O	 1.0947093889	 2.0299503782	-0.0011189178	-0.24003
N	 1.1029430168	 4.5527841851	 0.0121912694	-0.277278
N	 0.0764473358	 5.3718438771	 0.0304611493	-0.129259
N	-1.0815800419	 4.6128855133	 0.0424763018	-0.343736
H	-2.0931502787	 1.6054571353	 0.0419997676	 0.29028
H	-1.9710440478	 5.0828280368	 0.0573721055	 0.291796
130.2899	143.0557	344.0045	370.254	395.7918	484.1862	587.4953	605.7041	678.0727	748.8735	753.5491	784.6032	865.753	902.844	930.8147	1024.4268	1064.571	1204.8746	1292.7985	1306.1834	1370.3529	1473.3094	1590.6679	1647.6612	1919.0354	3678.5152	3692.1552
O=C1NC2=C(O1)N=NN2	O=c1[nH]c2c(o1)nn[nH]2	
InChI=1S/C3H2N4O2/c8-3-4-1-2(9-3)6-7-5-1/h(H2,4,5,6,7,8)	InChI=1S/C3H2N4O2/c8-3-4-1-2(9-3)6-7-5-1/h(H2,4,5,6,7,8)
