11
gdb 23852	3.40133	2.37037	1.39689	1.8221	57.7	-0.2514	-0.0629	0.1885	777.7929	0.072605	-438.653996	-438.648013	-438.647069	-438.68425	22.478	
F	 0.1130639697	 0.0911955545	 0.1762606906	-0.046727
C	 0.0308880995	 1.4052256643	 0.0457691478	 0.292004
N	-1.1592001947	 1.8684509279	-0.0132053145	-0.12225
O	-1.2849254706	 3.242774907	-0.1499719687	-0.235061
C	-0.1743698714	 4.0115986126	-0.2132221989	 0.103768
C	 1.0835856496	 3.5521230812	-0.1538329654	-0.192975
C	 1.3130363295	 2.1301319365	-0.0111979324	 0.196906
N	 2.4720404077	 1.5881908855	 0.0552229531	-0.52431
H	-0.4551272113	 5.0525340436	-0.3189026287	 0.157351
H	 1.9262759716	 4.2280720946	-0.2109396897	 0.140066
H	 2.3845151405	 0.5753632023	 0.1539920568	 0.231228
124.0805	311.9966	326.692	406.9241	473.3643	513.7191	543.5107	597.6806	735.5581	744.2627	840.9549	903.5271	910.7767	965.5611	973.8714	1023.5772	1139.5785	1243.3852	1320.5205	1380.5222	1453.1215	1648.1056	1657.9521	1705.7515	3216.5792	3236.3735	3471.9138
FC1=NOC=CC1=N	FC1=NO[CH]C=C1[NH]	
InChI=1S/C4H3FN2O/c5-4-3(6)1-2-8-7-4/h1-2,6H	InChI=1S/C4H3FN2O/c5-4-3(6)1-2-8-7-4/h1-2,6H
