11
gdb 129152	2.25042	1.75587	1.26083	3.1831	67.77	-0.2907	-0.1337	0.157	960.2723	0.058887	-484.764	-484.75701	-484.756066	-484.795285	26.568	
N	-0.2522986801	 1.4597315768	-0.0894877088	-0.441996
C	-0.0914587384	 0.1612518383	-0.0118059565	 0.280796
N	 1.2581563673	-0.5250974705	 0.0961989997	-0.107785
N	 1.6264572106	-1.4960243508	-0.702725153	 0.066855
O	 0.7866880188	-1.9072218132	-1.8966069884	-0.240383
C	-0.6373996599	-1.8333756217	-1.9599163432	 0.17525
N	-1.6249278136	-1.5046944235	-1.149420952	-0.287276
C	-1.2855805932	-0.8503729304	 0.1437704353	 0.407831
O	-1.9199656865	-1.0375145914	 1.2026084616	-0.293461
H	 0.734776912	 1.8912153593	-0.1577034046	 0.258628
H	-0.907372267	-2.2559724831	-2.9538882501	 0.18154
83.5264	89.7106	197.2519	257.9398	308.6806	396.4633	412.4899	487.9738	581.7058	639.5187	725.2318	754.3052	797.0606	846.4552	888.4745	918.2873	966.1664	979.3855	1114.7628	1319.3847	1415.1352	1470.32	1625.9734	1696.5814	1813.983	3355.6846	3435.5776	189.7228	225.423	247.9273	294.2827	354.2539	377.2216	487.857	503.5633	545.4788	596.168	640.3623	736.6308	809.1977	843.2329	877.4631	910.0323	999.7176	1023.3194	1101.9134	1126.199	1350.0557	1366.7651	1416.6415	1478.3204	1522.3176	2872.8996	2951.5558
N=C1N=NOC=NC1=O	[NH][C]1N=NOC=NC1=O	
InChI=1S/C3H2N4O2/c4-2-3(8)5-1-9-7-6-2/h1,4H	InChI=1S/C3H2N4O2/c4-2-3(8)5-1-9-7-6-2/h1,4H
