10
gdb 130684	3.09212	1.41983	0.97304	0.4787	63.21	-0.2489	-0.107	0.1419	1053.4663	0.0542	-504.77817	-504.771082	-504.770138	-504.810284	25.016	
O	 0.2661200764	 0.1019927969	-0.0011874405	-0.351534
C	 0.0117300057	 1.265515285	 0.0096627149	 0.507474
N	-1.2178101824	 1.8999763361	 0.0301331122	-0.437041
C	-1.1326639527	 3.2996155167	 0.0373445018	 0.365364
C	 0.3150051113	 3.4754817333	 0.0184695369	 0.301304
O	 0.9781293432	 2.2576536274	 0.001985901	-0.238211
N	 0.9782208638	 4.5820073034	 0.0152413791	 0.109087
N	 1.5338163015	 5.5757733421	 0.0133227897	-0.197263
O	-2.0368359991	 4.0953062246	 0.0544871755	-0.354789
H	-2.0871749675	 1.3902321045	 0.0392683193	 0.295609
101.0855	144.2926	166.0386	312.0154	363.4803	464.1767	478.6781	551.1867	555.7593	656.4605	691.1076	720.0292	760.2628	798.8486	961.9527	1063.0852	1256.6134	1315.8766	1344.203	1463.7159	1846.9091	1929.0913	2185.7385	3660.5012
O=C1NC2=C(O1)N=NO2	O=C1NC(=O)[C](O1)[N][N]	
InChI=1S/C3HN3O3/c7-3-4-1-2(8-3)5-6-9-1/h(H,4,7)	InChI=1S/C3HN3O3/c4-6-2-1(7)5-3(8)9-2/h(H,5,7,8)
