11
gdb 130009	3.26814	1.36962	0.96572	4.1019	68.82	-0.2133	-0.0796	0.1337	1083.2827	0.066271	-484.891552	-484.884179	-484.883235	-484.923553	26.821	
N	-0.0632025189	 1.2722405115	 0.1289045705	-0.582572
C	 0.0085657553	-0.080167997	 0.0389939816	 0.495152
N	-0.9787487858	-0.9108830658	-0.0134267954	-0.401529
C	-0.3274342992	-2.1493729453	-0.016458485	 0.231165
C	 1.1190364145	-2.0121708325	 0.0244303267	 0.380494
O	 2.0465418629	-2.7634226388	 0.0290798663	-0.341397
N	-1.4412877963	-4.3158338009	-0.0916565741	-0.210027
N	-0.9363883509	-3.2994768756	-0.055641077	 0.107689
O	 1.2691863926	-0.6008317147	 0.0606662008	-0.237835
H	 0.7467441713	 1.7862189196	-0.1797776165	 0.278524
H	-0.9580921556	 1.6713930095	-0.1073215179	 0.280336
130.4316	147.0616	195.0337	318.1471	350.2995	389.1594	457.2995	489.1651	496.2703	554.2318	647.1182	678.6434	722.4508	741.0178	836.7286	923.5685	1036.3463	1135.1222	1248.7301	1419.9437	1439.5548	1610.4546	1721.1374	1892.0128	2202.2805	3594.9798	3712.4223
NC1=NC2=C(ON=N2)O1	NC1=N[C](C(=O)O1)[N][N]	
InChI=1S/C3H2N4O2/c4-3-5-1-2(8-3)9-7-6-1/h(H2,4,5)	InChI=1S/C3H2N4O2/c4-3-6-1(7-5)2(8)9-3/h(H2,4,6,7)
