11
gdb 132698	3.16368	1.31216	0.92748	1.0718	56.1	-0.2655	-0.043	0.2225	1067.5189	0.06465	-545.949681	-545.943112	-545.942167	-545.980975	24.661	
F	 0.0123030826	 0.0229774686	 0.0040015059	-0.055887
C	-0.0164280842	 1.3525351113	 0.0108280298	 0.114986
C	-1.2111869111	 2.0479870339	 0.0297039669	-0.099641
N	-1.2712888158	 3.3853876354	 0.0369364342	-0.311781
C	-0.1333135929	 4.0373760766	 0.0253092637	 0.367436
F	-0.2099183814	 5.3631429763	 0.0328891725	-0.066982
C	 1.1347298613	 3.4579731011	 0.0061303948	-0.416763
C	 1.1777273606	 2.0769675579	-0.0011255413	 0.225824
F	 2.3329967305	 1.4315312802	-0.0192049069	-0.044923
H	-2.1483080507	 1.4995840237	 0.0391806946	 0.143357
H	 2.0388679411	 4.0517377149	-0.0026612743	 0.144374
151.9774	231.7059	276.3772	358.3015	402.1846	447.9033	475.7797	533.948	603.4207	677.9654	744.9832	763.3993	801.2381	873.3576	944.6807	987.7537	1181.0887	1236.5464	1297.3762	1323.4587	1360.6603	1452.1313	1549.0527	1638.6483	1655.1793	3181.0214	3227.8415
FC1=CN=C(F)C=C1F	Fc1cnc(F)cc1F	
InChI=1S/C5H2F3N/c6-3-1-5(8)9-2-4(3)7/h1-2H	InChI=1S/C5H2F3N/c6-3-1-5(8)9-2-4(3)7/h1-2H
