11
gdb 130491	4.07546	1.84821	1.27156	2.0303	65.27	-0.2865	-0.1183	0.1682	856.9746	0.069083	-447.713773	-447.708229	-447.707285	-447.743729	21.322	
O	-0.0114724624	 1.251913156	 0.009042356	-0.181114
C	 1.136101611	 1.9406175525	 0.00174081	 0.155485
N	 2.3476343976	 1.4860012225	-0.0125391336	-0.317364
C	 2.3923520313	 0.1330997699	-0.0204970042	 0.366592
N	 3.4160649671	-0.6787343865	-0.0348558638	-0.329305
C	 2.789219843	-1.9280548776	-0.0357569159	 0.052976
N	 1.4706939328	-1.9902142356	-0.0233802015	-0.304019
C	 1.1425137378	-0.6586257381	-0.0127364328	 0.389285
N	-0.0458169687	-0.1452419294	 0.0016203955	-0.15605
H	 0.9250645873	 3.0053929768	 0.0096980342	 0.176331
H	 3.3966284532	-2.8256880805	-0.046652304	 0.147182
209.8229	265.7756	377.4834	496.275	561.3069	569.1235	622.7785	639.8915	761.3523	837.7899	902.9008	925.1702	933.71	949.7625	996.6411	1085.9328	1117.4341	1236.7294	1318.7803	1360.4288	1428.4339	1452.0595	1561.5177	1630.5529	1652.3689	3205.4935	3224.3209
O1C=NC2=NC=NC2=N1	o1cnc2ncnc2n1	
InChI=1S/C4H2N4O/c1-5-3-4(6-1)8-9-2-7-3/h1-2H	InChI=1S/C4H2N4O/c1-5-3-4(6-1)8-9-2-7-3/h1-2H
