10
gdb 21442	3.86464	2.05891	1.34327	2.2922	52.53	-0.2825	-0.085	0.1975	798.9926	0.0598	-446.739118	-446.732744	-446.7318	-446.769999	22.267	
N	-0.1170506964	 1.3183817747	 0.0112301012	-0.570358
C	 0.012072677	 0.0681055049	 0.003475175	 0.545439
O	 1.1365889902	-0.7072765465	-0.0076159477	-0.240486
N	 0.7198522819	-2.0783420784	-0.0131252714	 0.04442
N	-0.5178163039	-2.1300623946	-0.0050362703	-0.002489
N	-1.0326506254	-0.868616662	 0.0047243484	-0.137769
C	-2.4173835018	-0.5948992694	 0.014734284	 0.19207
O	-3.2588126388	-1.4426668054	 0.0151908647	-0.246027
H	 0.7794684411	 1.7973091658	 0.0084948473	 0.255923
H	-2.5759964438	 0.4939935109	 0.0215152288	 0.159277
125.7967	191.3815	204.7838	267.3948	379.631	556.6878	653.1966	694.1047	719.8596	755.843	785.5341	849.9253	991.9649	1037.4642	1040.3692	1181.7406	1217.4886	1362.2747	1417.2233	1569.6709	1801.9001	1849.423	3046.0342	3549.3244
N=C1ON=NN1C=O	[NH][C@H]1ON=NN1C=O	
InChI=1S/C2H2N4O2/c3-2-6(1-7)4-5-8-2/h1,3H	InChI=1S/C2H3N4O2/c3-2-6(1-7)4-5-8-2/h1-3H/t2-/m1/s1
