9
gdb 133454	2.57085	1.76272	1.04572	0.3958	50.72	-0.299	-0.121	0.178	952.5496	0.039426	-573.791732	-573.7851	-573.784156	-573.823274	23.883	
F	-0.0092990827	 0.1208723935	 0.2268734613	-0.015973
C	-0.0042132991	 1.4195322075	 0.0530981406	 0.305994
N	-1.1466499093	 2.001173184	 0.0180068227	-0.102886
O	-1.1751086889	 3.3574590432	-0.1623855225	-0.200853
N	-0.0441878784	 4.1145797861	-0.306043812	-0.102883
C	 1.091055386	 3.5191449891	-0.2688947864	 0.305993
F	 2.1553147443	 4.2704326945	-0.4091106339	-0.015973
C	 1.3045955642	 2.0759833229	-0.0836894172	 0.13524
O	 2.3783834339	 1.5210448092	-0.0497355627	-0.308658
91.3694	271.9529	292.0139	319.7278	348.0852	463.7788	485.7223	546.6169	562.6928	594.0681	698.256	798.1588	877.6685	921.4661	1042.6453	1096.5558	1407.0796	1433.939	1626.3759	1636.7178	1791.3388
FC1=NON=C(F)C1=O	Fc1nonc(F)c1=O	
InChI=1S/C3F2N2O2/c4-2-1(8)3(5)7-9-6-2	InChI=1S/C3F2N2O2/c4-2-1(8)3(5)7-9-6-2
