11
gdb 123295	2.05654	1.89298	0.98569	3.9221	77.06	-0.2543	-0.0788	0.1755	1077.6912	0.063517	-414.316754	-414.309222	-414.308278	-414.348956	27.754	
C	 0.1463146035	-1.2054301976	-0.0056189483	-0.363778
C	 0.0592629351	-0.0055801351	 0.0022650897	 0.231525
C	-0.0524311092	 1.3916363339	 0.0114121184	 0.242737
C	-1.1449856857	 2.2307023292	 0.0314720467	 0.026046
N	-0.6384770605	 3.5190407317	 0.0312844489	-0.168096
N	 0.6144357659	 3.5069048383	 0.013144226	-0.009013
O	 1.0525843301	 2.1473157415	-0.0007263283	-0.22159
C	-2.5187245285	 1.9294458312	 0.0495753429	 0.222003
C	-3.6937404874	 1.6730733638	 0.065096809	-0.380368
H	 0.2220994822	-2.2655466975	-0.012605486	 0.215985
H	-4.7316524955	 1.4470492606	 0.0788001911	 0.20455
103.9673	161.5207	187.4341	199.4641	418.2786	446.065	513.7291	517.9056	601.8543	602.7039	637.4636	656.2862	684.9183	692.529	693.7337	703.8057	789.6405	1008.7659	1153.6413	1205.9772	1367.4088	1469.2034	1580.666	2237.5267	2250.1278	3495.6403	3500.3949
C#CC1=C(N=NO1)C#C	C#Cc1c(nno1)C#C	
InChI=1S/C6H2N2O/c1-3-5-6(4-2)9-8-7-5/h1-2H	InChI=1S/C6H2N2O/c1-3-5-6(4-2)9-8-7-5/h1-2H
