11
gdb 132477	3.25749	1.4385	0.99785	3.1409	58.36	-0.2402	-0.0738	0.1664	1029.7679	0.065253	-533.832116	-533.825275	-533.824331	-533.863677	25.547	
O	-0.0411757117	 1.3261023072	 0.0103723631	-0.37904
C	 0.0596256959	-0.0091030204	 0.0026146234	 0.285607
N	 1.1982773494	-0.603417143	-0.0079768146	-0.317768
C	 1.2322851967	-1.9829897539	-0.0155143266	-0.256384
C	 0.0818291082	-2.673502444	-0.0116550175	 0.362864
F	-0.0199582224	-3.9807083222	-0.0179170121	-0.030332
O	-1.1209803914	-2.0905469223	-0.0007054174	-0.215668
C	-1.2521400226	-0.6981752849	 0.007522857	 0.391955
O	-2.3393367479	-0.2093583623	 0.0172405255	-0.296209
H	 0.8627360557	 1.6734224099	 0.006319248	 0.311627
H	 2.19231095	-2.477971184	-0.0244115689	 0.143347
108.059	177.3838	325.7691	354.1923	409.3055	437.6522	482.0285	521.9158	568.6094	613.3097	653.8104	714.6713	791.7358	796.6432	839.76	1034.2695	1049.1051	1147.5044	1280.3573	1302.2477	1386.9518	1439.865	1632.9299	1700.0821	1874.3396	3238.1055	3762.0671
OC1=NC=C(F)OC1=O	Oc1ncc(F)oc1=O	
InChI=1S/C4H2FNO3/c5-2-1-6-3(7)4(8)9-2/h1H,(H,6,7)	InChI=1S/C4H2FNO3/c5-2-1-6-3(7)4(8)9-2/h1H,(H,6,7)
