11
gdb 131991	4.88607	1.10144	0.89882	3.7993	58.6	-0.2918	-0.111	0.1808	1145.4027	0.065232	-525.71922	-525.712231	-525.711287	-525.751338	25.129	
O	 0.0747963531	 1.3276633958	 0.0826960185	-0.408154
C	 0.069204544	-0.0062741228	 0.0756345814	 0.49959
N	 0.0914438088	-0.7008453313	-1.0434862635	-0.225009
O	 0.0768623168	-2.0391574905	-0.6524200041	-0.182718
C	 0.046733348	-2.0688862141	 0.6775986441	 0.569658
C	 0.0395510128	-0.8327859028	 1.232506246	-0.422097
N	 0.0268276864	-3.3708505643	 1.3110187925	 0.353752
O	-0.0006735826	-3.3609059269	 2.5350774558	-0.350272
O	 0.0389919073	-4.3501076555	 0.5851210454	-0.331133
H	 0.0967957792	 1.6371944188	-0.8338183818	 0.322596
H	 0.0172796162	-0.5607511963	 2.2721437657	 0.173788
71.3104	159.3943	194.4989	363.6808	387.3129	426.484	458.8376	553.6917	601.0854	706.5216	719.3337	779.0673	835.8655	852.386	960.3533	995.4317	1049.3967	1128.7791	1224.089	1328.8708	1393.5753	1489.0678	1567.1517	1642.0233	1661.9358	3311.0988	3772.1803
OC1=NOC(=C1)N(=O)=O	Oc1noc(c1)N(=O)=O	
InChI=1S/C3H2N2O4/c6-2-1-3(5(7)8)9-4-2/h1H,(H,4,6)	InChI=1S/C3H2N2O4/c6-2-1-3(5(7)8)9-4-2/h1H,(H,4,6)
