11
gdb 23792	4.15359	1.87912	1.29379	3.8983	58.5	-0.234	-0.0667	0.1673	823.7703	0.07245	-434.831863	-434.825488	-434.824544	-434.862822	23.329	
F	 0.087415286	 0.0335734298	 0.0017162883	-0.047173
C	-0.0713095066	 1.3448869607	 0.0112713277	 0.468145
C	-1.2470139864	 1.9806770156	 0.0306660635	-0.383031
C	-1.214441457	 3.434534874	 0.0384854594	 0.403066
N	-2.2707606106	 4.1505683982	 0.0567398726	-0.516965
N	 0.085532035	 4.0604077456	 0.0244499952	-0.239511
N	 1.1552746792	 3.4087160913	 0.00639469	-0.03021
N	 1.1040272867	 2.0418770886	-0.0005602935	-0.319955
H	-2.1874592628	 1.4496917995	 0.0402856193	 0.146613
H	-2.0024639398	 5.136809572	 0.0586752553	 0.22677
H	 2.0001864364	 1.5821750247	-0.0152743878	 0.292252
75.2205	198.7229	350.5453	367.723	473.3823	494.9385	518.472	556.0734	651.1957	748.0658	750.3429	855.9911	906.8979	924.9825	1014.6826	1054.6487	1111.0116	1228.1645	1316.7596	1342.9115	1447.6929	1601.8455	1697.565	1740.0329	3248.5848	3465.0803	3660.3069
FC1=CC(=N)N=NN1	Fc1cc([NH])nn[nH]1	
InChI=1S/C3H3FN4/c4-2-1-3(5)7-8-6-2/h1H,(H2,5,6,7)	InChI=1S/C3H8FN4/c4-2-1-3(5)7-8-6-2/h2-3,5-8H,1H2
