11
gdb 129319	3.30089	1.36205	0.96984	2.4744	64.05	-0.2852	-0.1524	0.1328	1083.7878	0.063378	-484.800728	-484.79317	-484.792226	-484.833884	26.069	
N	 0.0247350948	 1.3087587324	-0.0928999684	-0.479542
C	-0.0023090155	 0.0566837342	 0.048524331	 0.450582
O	 1.1552796103	-0.6881201988	 0.2368518308	-0.26013
N	 1.1442224995	-2.1105292109	 0.0010926945	 0.075805
N	 0.0575005311	-2.6627515668	-0.1391015255	-0.135833
C	-1.1473355982	-1.9097369743	-0.0172869829	 0.275795
C	-2.3864513946	-2.7760330809	-0.0040353019	 0.125803
O	-3.492518442	-2.331642196	 0.1199114961	-0.203005
N	-1.2097966499	-0.6405684787	 0.0624348551	-0.222339
H	 0.9851382502	 1.6539132633	-0.1129047561	 0.249088
H	-2.1675584358	-3.8556438834	-0.1181717928	 0.123778
50.4007	106.4981	171.5978	191.7471	350.3491	368.0626	447.4385	555.706	613.4036	650.1418	680.417	769.8605	782.2385	877.7579	922.7005	982.645	1033.425	1071.4376	1174.8769	1279.7031	1412.2257	1607.1529	1685.6185	1739.7558	1837.8158	2955.8232	3500.8367
N=C1ON=NC(C=O)=N1	[NH]C1=NC(=N[N]O1)C=O	
InChI=1S/C3H2N4O2/c4-3-5-2(1-8)6-7-9-3/h1,4H	InChI=1S/C3H2N4O2/c4-3-5-2(1-8)6-7-9-3/h1,4H
