11
gdb 21348	6.13951	1.37547	1.28421	2.9651	56.2	-0.31	-0.0504	0.2596	892.5718	0.074165	-389.745661	-389.73924	-389.738295	-389.777451	21.648	
N	-0.0382342284	-1.1648868816	 0.1753753361	-0.279358
C	 0.0025977548	-0.0150247257	 0.0876055089	 0.28984
C	 0.0205754277	 1.4468558256	-0.0253766613	-0.274887
N	 1.365226977	 1.9932576972	 0.0063137882	 0.153247
N	 2.1111743819	 2.0431796534	 1.1035937284	-0.233852
C	 3.2186356738	 2.5969631702	 0.6309858398	 0.090498
N	 3.1439976426	 2.8716582596	-0.6943478267	-0.195626
N	 1.9605264177	 2.4802809344	-1.0807918652	-0.107729
H	-0.4200484411	 1.7534218352	-0.9766375419	 0.202861
H	-0.5570521184	 1.8848567947	 0.7927973334	 0.194278
H	 4.0819868123	 2.8086454369	 1.2401348002	 0.160728
43.5962	103.3802	268.022	340.2332	366.6307	490.2831	691.6516	725.7847	797.2688	909.1246	944.6073	952.8936	1022.1146	1041.5069	1149.2185	1163.9602	1261.4878	1317.6261	1343.9874	1380.3161	1404.4384	1450.4776	1496.6678	2377.9176	3081.6456	3136.6451	3293.2139
N#CCN1N=CN=N1	N#CCn1ncnn1	
InChI=1S/C3H3N5/c4-1-2-8-6-3-5-7-8/h3H,2H2	InChI=1S/C3H3N5/c4-1-2-8-6-3-5-7-8/h3H,2H2
