11
gdb 130578	3.76466	1.31014	0.97191	1.4382	63.07	-0.2951	-0.1227	0.1724	1069.5068	0.066852	-447.74963	-447.742545	-447.741601	-447.781952	24.577	
O	 0.0451103356	-0.0725036461	 0.0027473586	-0.279025
C	 0.0021059723	 1.1269224568	 0.0061740148	 0.391033
C	 1.2112132035	 1.9598320413	 0.0002688169	 0.241315
N	 2.1777000542	 2.5925009797	-0.004540275	-0.298578
N	-1.1849868278	 1.8610923831	 0.0161290801	-0.140359
C	-1.3885119618	 3.2364212354	 0.0211409166	 0.055848
N	-2.6545687779	 3.5063530092	 0.0304008812	-0.207012
N	-3.3476430494	 2.2905085922	 0.0319000713	-0.209197
C	-2.4705968384	 1.3375485868	 0.0234141087	 0.065067
H	-0.5787031314	 3.9489753985	 0.0175473655	 0.190781
H	-2.6594966689	 0.2767154631	 0.0218848613	 0.190128
81.2918	131.0033	152.6754	258.3259	307.803	479.0672	504.8395	623.6033	669.6336	675.6064	767.4806	843.0577	879.2578	938.454	964.5874	1000.1507	1071.8668	1230.0621	1247.2258	1293.4459	1405.1613	1539.4819	1543.0346	1812.423	2355.0482	3276.6459	3293.3345
O=C(C#N)N1C=NN=C1	O=C(C#N)n1cnnc1	
InChI=1S/C4H2N4O/c5-1-4(9)8-2-6-7-3-8/h2-3H	InChI=1S/C4H2N4O/c5-1-4(9)8-2-6-7-3-8/h2-3H
