10
gdb 21427	4.11621	2.1574	1.4155	2.8532	53.79	-0.2932	-0.1042	0.189	766.2826	0.061258	-446.771668	-446.765412	-446.764468	-446.803669	21.836	
N	-0.0870726818	 1.2864324099	-0.2792177195	-0.467144
C	-0.0071104551	 0.0871593295	 0.0894580091	 0.482391
O	-1.1895884241	-0.5485363181	 0.4323500261	-0.218901
C	-1.2059804002	-1.8403091568	 0.8412179886	 0.525025
O	-2.2097270562	-2.4092853231	 1.1415721438	-0.335138
N	 0.0544536483	-2.4199579981	 0.8723822522	-0.306896
N	 1.2286575732	-1.8243239592	 0.5441227411	-0.007158
N	 1.2147666464	-0.629440829	 0.1692145093	-0.233534
H	 0.8480812768	 1.6282238367	-0.4990843156	 0.258713
H	 0.1310703227	-3.3818733018	 1.166654385	 0.302643
21.3296	131.9854	387.0265	399.8347	523.0434	555.2933	574.5084	615.9625	752.8377	754.5304	763.831	899.9107	974.7682	987.0431	1046.506	1127.2981	1200.2381	1347.1356	1419.0647	1603.6219	1741.7675	1899.92	3516.0646	3645.7622
N=C1OC(=O)NN=N1	[NH]c1oc(=O)[nH]nn1	
InChI=1S/C2H2N4O2/c3-1-4-6-5-2(7)8-1/h(H2,3,4,5,7)	InChI=1S/C2H5N4O2/c3-1-4-6-5-2(7)8-1/h1,3-4,6H,(H,5,7)
