11
gdb 130685	5.48009	1.3553	1.08658	3.9594	58.22	-0.2344	-0.0251	0.2093	971.7862	0.06757	-488.689115	-488.682784	-488.68184	-488.720021	23.602	
O	 0.0652127966	-0.0080325152	 0.0026577207	-0.349654
C	-0.0405300727	 1.1770254309	 0.00970511	 0.469366
N	-1.1636103957	 1.9826286337	 0.0294245521	-0.518188
C	-0.7698347968	 3.3258425512	 0.0315685142	 0.173847
C	 0.5795686125	 3.289968317	 0.0124211038	 0.481473
O	 1.1447670249	 4.4775303824	 0.0104110998	-0.221033
N	 0.0651046824	 5.4161817029	 0.0304594635	-0.148484
C	-1.0534056713	 4.7048120965	 0.0422581508	-0.077581
O	 1.0998903458	 2.0561870973	-0.0015598711	-0.249834
H	-2.0870802311	 1.5871358428	 0.042606087	 0.289342
H	-1.9931783647	 5.2363041904	 0.0581154892	 0.150747
126.147	176.4507	332.4103	358.2347	403.7178	583.1181	592.2127	601.1342	725.772	749.5887	769.5793	797.1918	824.0317	858.8121	886.0172	976.9863	1089.4228	1198.1355	1270.9829	1314.9665	1402.6068	1486.6231	1570.1262	1674.7378	1937.3621	3256.9035	3696.6881
O=C1NC2=C(ON=C2)O1	O=c1[nH]c2c(onc2)o1	
InChI=1S/C4H2N2O3/c7-4-6-2-1-5-9-3(2)8-4/h1H,(H,6,7)	InChI=1S/C4H2N2O3/c7-4-6-2-1-5-9-3(2)8-4/h1H,(H,6,7)
