10
gdb 129158	2.12624	1.80261	1.28119	1.7154	66.42	-0.3091	-0.1437	0.1654	946.0573	0.044521	-500.734208	-500.727484	-500.72654	-500.765324	25.306	
N	-0.2341925311	 1.5006582982	 0.1089423891	-0.433093
C	-0.0394583541	 0.2059604388	 0.0267117281	 0.314478
N	 1.3149926836	-0.4616547539	-0.0225043122	-0.14646
N	 1.5357624298	-1.4855574959	-0.8214810601	 0.08658
O	 0.5839529137	-2.010640982	-1.8321935302	-0.245777
N	-0.861039532	-1.6429407736	-2.1988901782	 0.08212
N	-1.7224162417	-1.157750513	-1.3507795206	-0.098124
C	-1.2452843293	-0.788146292	 0.098055599	 0.416064
O	-1.8184359452	-1.2267947533	 1.1069764491	-0.244524
H	 0.7433172862	 1.9547776368	 0.057135216	 0.268736
-544.9054	196.2634	231.3216	285.0406	290.8162	372.1046	418.7804	483.2145	522.6653	553.6956	639.0169	644.5568	788.355	835.6698	865.115	877.6212	971.1367	1081.9656	1104.9489	1144.2288	1346.6534	1466.6243	1539.296	2883.5422
N=C1N=NON=NC1=O	[NH][C]1N=NON=NC1=O	
InChI=1S/C2HN5O2/c3-1-2(8)5-7-9-6-4-1/h3H	InChI=1S/C2HN5O2/c3-1-2(8)5-7-9-6-4-1/h3H
