11
gdb 42524	4.00019	1.07143	0.89557	0.0754	62.62	-0.312	-0.0926	0.2194	1176.7483	0.064174	-451.537759	-451.529857	-451.528912	-451.571299	26.825	
O	-0.0235019812	 0.0248074883	-0.3029488622	-0.210648
C	 0.0808696119	 1.190794465	-0.1635023371	 0.352833
C	-0.8811499245	 2.4084866809	-0.0162582528	-0.122461
O	 0.2676724642	 3.2776509688	 0.0860150502	-0.269096
C	 1.2441348954	 2.2213137977	-0.0419250101	-0.122461
C	 2.1135386216	 2.0795257329	 1.1186415328	 0.29625
N	 2.7922401692	 1.947123364	 2.044074571	-0.29095
C	-1.7374812344	 2.6966257394	-1.1593018008	 0.296249
N	-2.4093770365	 2.9053404551	-2.0755913539	-0.290946
H	-1.4689336017	 2.3901649707	 0.9099032203	 0.180615
H	 1.838911196	 2.3175075171	-0.9587601375	 0.180616
49.0068	112.7895	135.8658	186.5735	263.0532	372.0107	426.3546	462.1326	477.7878	613.3545	710.1151	741.657	759.9591	941.1618	961.3655	1019.8319	1037.5266	1073.4336	1201.2197	1201.3579	1310.423	1329.597	1964.6198	2361.4795	2361.5172	3045.398	3049.6265
O=C1C(OC1C#N)C#N	O=C1[C@@H](O[C@H]1C#N)C#N	
InChI=1S/C5H2N2O2/c6-1-3-5(8)4(2-7)9-3/h3-4H	InChI=1S/C5H2N2O2/c6-1-3-5(8)4(2-7)9-3/h3-4H/t3-,4-/m0/s1
