11
gdb 21868	4.04965	2.05713	1.36417	2.4215	57.26	-0.2638	-0.0654	0.1984	803.786	0.073158	-430.705592	-430.699369	-430.698425	-430.736191	22.969	
O	-0.0271141056	 1.3159477508	 0.0075953053	-0.373096
C	-0.0688762058	-0.011371502	 0.0013519883	 0.525495
N	-1.182855542	-0.6303796957	 0.0038081024	-0.384772
C	-1.1145306786	-2.0235898994	-0.0042680679	 0.326283
N	-2.1123803029	-2.8186029608	-0.0031777782	-0.516933
C	 0.2379262985	-2.6007115321	-0.0147692392	 0.055383
N	 1.3344138919	-1.946319809	-0.0172012458	-0.076133
O	 1.1804896788	-0.5288034987	-0.0085488015	-0.281981
H	 0.8983258209	 1.5977432199	 0.0039573109	 0.324247
H	-2.9775158483	-2.2726435085	 0.0045032323	 0.232197
H	 0.3476640331	-3.6808512745	-0.0212216066	 0.169309
101.6531	200.7078	364.5517	384.2286	473.0368	494.6874	532.2309	589.7929	714.1717	743.1201	760.4853	884.4546	928.8855	969.7724	970.9738	990.7427	1139.9914	1265.5902	1266.3034	1371.2711	1409.7583	1669.3939	1710.7126	1736.9884	3198.2829	3457.7328	3783.2659
OC1=NC(=N)C=NO1	OC1=N[C]([NH])C=NO1	
InChI=1S/C3H3N3O2/c4-2-1-5-8-3(7)6-2/h1H,(H2,4,6,7)	InChI=1S/C3H3N3O2/c4-2-1-5-8-3(7)6-2/h1H,(H2,4,6,7)
