10
gdb 21701	3.53044	2.49126	1.46083	3.9104	54.27	-0.2653	-0.1059	0.1594	744.383	0.059052	-446.699043	-446.6923	-446.691356	-446.730294	24.021	
N	 0.0267349645	 1.3477080183	 0.0560725975	-0.536536
C	-0.0373051246	 0.0056909513	 0.0152614998	 0.354103
N	-1.1858353235	-0.6132402129	-0.0001531034	-0.174479
O	-1.121873269	-1.9925190227	-0.0126372793	-0.203227
N	 0.0641560012	-2.7069328658	-0.0120202899	 0.096028
N	 1.1635244464	-2.1169942336	-0.012219303	-0.193847
C	 1.247592292	-0.7099528733	-0.0083100256	 0.4034
O	 2.313115045	-0.1362281756	-0.0268125023	-0.319935
H	 0.9377042422	 1.7684284422	-0.0243409159	 0.292767
H	-0.8076271042	 1.9059376521	-0.0040920979	 0.281726
66.9327	177.318	275.5899	309.4486	420.3863	504.7059	530.7663	549.7096	582.5248	596.6553	703.5239	752.2334	827.3257	931.8235	983.4654	1139.11	1192.8268	1462.7706	1536.8081	1589.9076	1646.8029	1794.9081	3604.8513	3740.3001
NC1=NON=NC1=O	Nc1nonnc1=O	
InChI=1S/C2H2N4O2/c3-1-2(7)4-6-8-5-1/h(H2,3,5)	InChI=1S/C2H2N4O2/c3-1-2(7)4-6-8-5-1/h(H2,3,5)
