11
gdb 21834	6.02761	1.49905	1.20049	3.5785	54.56	-0.2745	-0.0535	0.221	887.7852	0.073164	-430.699228	-430.692917	-430.691973	-430.730261	22.249	
O	-0.2796684758	 0.0327517036	 0.0023144033	-0.292332
C	-0.0800045402	 1.2236431698	 0.0082817367	 0.153452
N	 1.1618726943	 1.813799249	 0.0010948512	-0.399287
C	 2.364902664	 1.1295647391	-0.0138129115	 0.442243
N	 3.5034856824	 1.7737478261	-0.0186133392	-0.184646
O	 4.4648949054	 0.7981518834	-0.0337613605	-0.14427
N	 3.9126708981	-0.4473709152	-0.0383077052	-0.051893
C	 2.6210656998	-0.2741413165	-0.0261789522	-0.093808
H	-0.8833597969	 1.9815802626	 0.020764119	 0.106563
H	 1.22221788	 2.8218690432	 0.0076280221	 0.278982
H	 1.921743309	-1.091269965	-0.0262568738	 0.184996
79.6392	187.3497	215.9938	361.3871	402.6062	583.4997	632.2901	634.6942	725.1437	861.9277	906.1009	911.1335	935.89	1022.9268	1025.2675	1065.0279	1136.0676	1208.4891	1421.4386	1428.1021	1490.4299	1509.721	1642.6577	1814.8448	2982.542	3313.2971	3616.884
O=CNC1=NON=C1	O=CNc1nonc1	
InChI=1S/C3H3N3O2/c7-2-4-3-1-5-8-6-3/h1-2H,(H,4,6,7)	InChI=1S/C3H3N3O2/c7-2-4-3-1-5-8-6-3/h1-2H,(H,4,6,7)
