11
gdb 21740	5.57879	2.25676	1.60678	3.4942	56.63	-0.2361	-0.0152	0.2209	703.5414	0.074771	-397.384789	-397.37966	-397.378715	-397.413932	20.026	
O	-0.0749164078	 1.2947790653	 0.0097217961	-0.206988
C	 1.2298205489	 1.8010959351	 0.0000180604	 0.002313
C	 2.1633435225	 0.8141428018	-0.0143414383	-0.356624
C	 1.4167111124	-0.4194791939	-0.0139853173	 0.13698
C	 0.1108876581	-0.0220066338	 0.0007332449	 0.487563
O	-0.77247872	-1.0005187759	 0.0038399151	-0.23757
N	 0.0092323498	-2.2046605529	-0.0101400872	-0.1416
C	 1.2729131067	-1.8327785264	-0.0204128828	-0.113368
H	 1.2874724298	 2.8759350879	 0.0053581419	 0.153154
H	 3.2311329654	 0.9632266962	-0.0237630036	 0.132807
H	 2.0196945644	-2.6144924533	-0.0318778294	 0.143333
221.3924	339.6479	469.8479	591.2712	608.0524	688.4912	706.4984	745.4385	767.1462	813.5159	830.2624	903.0855	905.5988	975.2661	1015.889	1133.5791	1183.4264	1209.1695	1299.34	1430.8064	1448.0122	1537.0466	1572.2228	1619.1534	3242.2499	3265.053	3299.3645
O1C=CC2=C1ON=C2	o1ccc2c1onc2	
InChI=1S/C5H3NO2/c1-2-7-5-4(1)3-6-8-5/h1-3H	InChI=1S/C5H3NO2/c1-2-7-5-4(1)3-6-8-5/h1-3H
