10
gdb 130883	2.25734	0.88849	0.67128	0.5273	54.97	-0.2811	-0.1128	0.1682	1508.5798	0.047839	-504.830174	-504.819423	-504.818479	-504.872319	30.107	
O	-0.1551493514	-0.2267974261	 0.283533843	-0.203382
C	-0.1626912798	 0.9351563632	-0.0065414238	 0.111356
C	 1.1033175161	 1.7496764527	-0.2906434756	 0.278227
N	 2.2746375674	 0.9994693119	-0.1760926884	-0.401586
C	 3.4493366448	 1.2949397686	-0.32174359	 0.618513
O	 4.5929890927	 1.4483477276	-0.4347150269	-0.250311
N	 3.4306689697	 4.4513254815	 0.8268576645	-0.005177
N	 3.3864868185	 5.5454240529	 0.7385625612	 0.004405
O	 1.0338772171	 2.916296593	-0.5810313716	-0.276649
H	-1.078756875	 1.5499177448	-0.1022437725	 0.124605
10.6896	21.3154	38.1924	47.2571	82.3822	89.4026	106.5006	126.7986	234.436	498.9793	567.11	610.7097	640.7638	688.827	793.1248	1031.225	1175.3039	1372.5956	1492.2179	1784.5244	1843.617	2348.7595	2433.5405	2960.7199	10.6929	21.3175	38.1937	47.2577	82.3829	89.4022	106.5003	126.8	234.4361	498.9792	567.1104	610.7097	640.7641	688.8268	793.1255	1031.2248	1175.3037	1372.5951	1492.218	1784.5247	1843.6173	2348.7595	2433.5405	2960.7199
O=CC1=NC(=O)N=NO1	O=CC(=O)N=C=O.N#N	
InChI=1S/C3HN3O3/c7-1-2-4-3(8)5-6-9-2/h1H	InChI=1S/C3HNO3.N2/c5-1-3(7)4-2-6;1-2/h1H;
