9
gdb 21986	5.73016	1.75214	1.34184	4.1545	47.46	-0.3151	-0.1119	0.2032	786.8821	0.048901	-466.548854	-466.543002	-466.542058	-466.580205	19.672	
O	-0.1063913915	 0.0047985825	 0.0034706045	-0.318853
N	-0.0332622027	 1.2196023989	 0.0070416863	 0.371947
O	 0.9763618137	 1.9010690524	 0.0029066548	-0.326463
C	-1.3110658463	 1.9453517022	 0.0173886402	 0.483458
N	-1.3374780308	 3.2501522416	 0.0208036643	-0.126406
O	-2.6989877745	 3.511070019	 0.0304720456	-0.134988
C	-3.3196245602	 2.3231368653	 0.031587362	 0.133457
N	-2.5144813033	 1.3088698453	 0.0237296537	-0.276532
H	-4.3993709044	 2.3280111429	 0.0387490686	 0.194381
31.3772	228.1714	239.4546	431.5592	533.5537	635.0387	658.31	816.2005	843.8063	910.7614	951.8753	980.6819	1016.0019	1122.0013	1287.5312	1349.8661	1407.9963	1484.0966	1586.3962	1673.1059	3277.2821
O=N(=O)C1=NOC=N1	O=N(=O)c1nocn1	
InChI=1S/C2HN3O3/c6-5(7)2-3-1-8-4-2/h1H	InChI=1S/C2HN3O3/c6-5(7)2-3-1-8-4-2/h1H
