11
gdb 131015	4.68498	1.05617	0.86187	5.8863	67.11	-0.3089	-0.0982	0.2107	1195.3587	0.067174	-447.763841	-447.756803	-447.755859	-447.795938	24.453	
O	-0.0411620157	-0.044258264	 0.0002291679	-0.21877
C	 0.001718043	 1.1451913439	 0.0093269158	 0.201179
N	 1.20342539	 1.9004792659	 0.0015551355	-0.027663
C	 1.3215977393	 3.2657820765	 0.0112467927	 0.031074
N	 2.5788616286	 3.615632428	-0.0002277257	-0.290935
C	 3.2218744685	 2.3972733135	-0.0177319748	 0.272269
N	 2.43498978	 1.3359784891	-0.0173317222	-0.241839
C	 4.6439609596	 2.2819189123	-0.0349497584	 0.282919
N	 5.7966133271	 2.2034327484	-0.0487877262	-0.312853
H	-0.8721627658	 1.8192256569	 0.0250139235	 0.125653
H	 0.4692917354	 3.9288776196	 0.0265096219	 0.178967
118.7822	134.4156	160.7655	253.469	289.5371	493.0587	512.1975	569.7337	604.6246	650.4328	772.2257	829.176	876.1386	1006.6366	1020.8931	1038.3702	1207.5253	1281.1188	1319.9333	1382.8444	1442.9939	1477.9225	1543.1906	1868.4002	2373.4365	2997.4202	3260.7473
O=CN1C=NC(=N1)C#N	O=Cn1cnc(n1)C#N	
InChI=1S/C4H2N4O/c5-1-4-6-2-8(3-9)7-4/h2-3H	InChI=1S/C4H2N4O/c5-1-4-6-2-8(3-9)7-4/h2-3H
