9
gdb 23857	3.40871	2.39869	1.40793	1.1637	49.46	-0.2839	-0.111	0.1729	744.623	0.047236	-474.550503	-474.544632	-474.543688	-474.580801	21.166	
F	 0.0557866143	 0.0780938535	 0.1384763841	-0.019343
C	-0.0064772331	 1.3839311072	 0.0373769012	 0.300717
N	-1.1792400496	 1.8998003659	 0.0073810711	-0.109771
O	-1.2774907936	 3.2695637313	-0.0984825201	-0.203791
N	-0.1888124852	 4.0917484791	-0.1720052659	-0.019063
C	 0.9852714983	 3.5643745198	-0.1411422698	-0.026126
C	 1.2598410674	 2.1297170457	-0.0317646493	 0.219176
O	 2.3625467764	 1.6266825408	-0.0021907744	-0.316959
H	 1.8169851252	 4.2599611166	-0.2025634669	 0.175161
117.1149	298.2879	311.6429	417.9339	462.2769	542.6494	561.2869	595.9117	719.7131	786.9298	845.7933	943.1742	944.6191	999.4156	1216.8316	1302.2836	1430.0883	1619.6252	1639.0484	1787.3787	3192.0831
FC1=NON=CC1=O	Fc1noncc1=O	
InChI=1S/C3HFN2O2/c4-3-2(7)1-5-8-6-3/h1H	InChI=1S/C3HFN2O2/c4-3-2(7)1-5-8-6-3/h1H
