11
gdb 130909	5.33257	1.09061	0.90543	3.3238	62.34	-0.2861	-0.1346	0.1515	1143.8991	0.064408	-488.66871	-488.661496	-488.660552	-488.701191	25.215	
O	-0.1703608287	-0.0079348829	 0.2451478966	-0.218145
C	-0.0445793442	 1.180897947	 0.1504897993	 0.128653
C	 1.2685210469	 1.8913181537	-0.0604380962	 0.286114
N	 2.3360163378	 1.1668181982	-0.1456934314	-0.060234
O	 3.5220351502	 1.8348404767	-0.3378867795	-0.233777
C	 3.5923660342	 3.2199557269	-0.4384344674	 0.438227
O	 4.6537199682	 3.743630535	-0.6059605849	-0.297767
C	 2.2908475465	 3.8984813196	-0.3203830976	-0.095333
N	 1.1842194361	 3.2750973579	-0.1411116065	-0.234979
H	-0.8922729079	 1.8930124906	 0.2089185006	 0.115406
H	 2.3017418409	 4.9842031873	-0.3933629732	 0.171836
61.8975	117.5296	199.5443	287.3415	349.0483	400.5887	477.4215	539.0014	564.5872	650.3152	770.7707	790.6772	819.735	925.5561	966.9827	1040.2095	1064.1722	1198.5899	1248.6896	1362.9634	1405.78	1558.9091	1660.807	1836.9662	1865.3898	2943.0567	3165.3578
O=CC1=NOC(=O)C=N1	O=Cc1noc(=O)cn1	
InChI=1S/C4H2N2O3/c7-2-3-5-1-4(8)9-6-3/h1-2H	InChI=1S/C4H2N2O3/c7-2-3-5-1-4(8)9-6-3/h1-2H
