11
gdb 21614	4.17619	2.06716	1.38273	4.138	58.89	-0.253	-0.0963	0.1567	799.5721	0.072067	-426.86187	-426.855019	-426.854075	-426.893239	24.669	
N	 0.0247197235	 1.3235423199	 0.0082404333	-0.542668
C	-0.0896189032	-0.013853464	 0.0014899213	 0.487124
N	-1.2284166625	-0.6134451684	 0.0045106643	-0.326681
C	-1.2113505563	-1.9854804193	-0.0034752153	 0.450919
N	-2.2482550706	-2.7029177258	-0.0016933258	-0.521043
O	 0.0595009553	-2.617933551	-0.0143567482	-0.260572
N	 1.2442037146	-1.8813147184	-0.0169164705	 0.078275
N	 1.1898206926	-0.6470229584	-0.0095571648	-0.175099
H	 0.9364391111	 1.7454113032	 0.0052885103	 0.287918
H	-0.8057375076	 1.8905814688	 0.0160987245	 0.288071
H	-2.0027820069	-3.6920083667	-0.008763639	 0.233757
73.047	156.4667	211.8287	346.8001	410.7662	470.2497	549.8554	578.7161	584.8228	715.5728	743.931	767.4217	791.1917	841.233	892.2569	982.6858	1028.0317	1177.6554	1297.9398	1403.0786	1586.5645	1622.8317	1730.6024	1774.9803	3512.853	3622.1851	3760.3037
NC1=NC(=N)ON=N1	NC1=N[N]OC(=N1)[NH]	
InChI=1S/C2H3N5O/c3-1-5-2(4)8-7-6-1/h(H3,3,4,5)	InChI=1S/C2H3N5O/c3-1-5-2(4)8-7-6-1/h(H3,3,4,5)
