11
gdb 21513	5.39898	1.79903	1.34939	2.2919	53.36	-0.2944	-0.0644	0.2299	810.8802	0.073841	-426.913885	-426.907332	-426.906388	-426.945111	22.932	
N	-0.0908181384	 1.2977784579	 0.0094930709	-0.557422
C	 0.1114738793	-0.0351131325	 0.0013909261	 0.531685
O	 1.1515300603	-0.6292125749	-0.0107505556	-0.324831
N	-1.1608481593	-0.7549952014	 0.0102738695	 0.033317
N	-1.2494564058	-2.0803728715	 0.0067506176	-0.200815
C	-2.5590192258	-2.2519699152	 0.0173293378	 0.091582
N	-3.2484471818	-1.0780176179	 0.0272478791	-0.199691
N	-2.3504384252	-0.1391790838	 0.0225701896	-0.115874
H	 0.7190498404	 1.8927050211	 0.0023128132	 0.285349
H	-1.020167855	 1.6849752937	 0.0176532514	 0.295743
H	-3.0299941187	-3.2212470654	 0.0182151303	 0.160957
68.8975	171.9267	239.8024	266.0421	422.8478	504.5993	569.1286	672.7959	688.9101	725.6844	766.601	909.3627	1008.9944	1036.1589	1097.3656	1143.6259	1198.6451	1271.4844	1301.3781	1322.643	1387.4778	1498.5568	1600.8398	1892.8075	3292.4754	3605.4964	3748.0254
NC(=O)N1N=CN=N1	NC(=O)n1ncnn1	
InChI=1S/C2H3N5O/c3-2(8)7-5-1-4-6-7/h1H,(H2,3,8)	InChI=1S/C2H3N5O/c3-2(8)7-5-1-4-6-7/h1H,(H2,3,8)
