10
gdb 21548	3.7446	1.99707	1.30351	3.7649	58.62	-0.2549	-0.0822	0.1727	822.008	0.061179	-409.622095	-409.615566	-409.614622	-409.652874	23.477	
N	 0.079591792	 1.3830088936	 0.1824085106	-0.601963
C	-0.0235109493	 0.0303750178	 0.0572332061	 0.217353
C	-1.1079426873	-0.8102033939	 0.0133097288	 0.274796
O	-0.6329299584	-2.0828045836	-0.0506141845	-0.202801
N	 0.7474666171	-1.9944016785	-0.0480726429	 0.013275
N	 1.0914166462	-0.7769522375	 0.0138648038	-0.162246
C	-2.4885662483	-0.5616147582	 0.0173916086	 0.230428
N	-3.6182296384	-0.3000475649	 0.0189550294	-0.330596
H	 0.9703933587	 1.7721013114	-0.0864286035	 0.280934
H	-0.7206591523	 1.9326706739	-0.0886704964	 0.28082
137.8291	164.6722	306.1978	336.6958	374.6875	482.7159	517.0845	539.6461	607.7918	669.6735	746.2314	759.4493	846.9266	1013.5454	1062.572	1202.1705	1262.4394	1421.0504	1462.3659	1625.7488	1692.6165	2336.2703	3588.1028	3697.7765
NC1=C(ON=N1)C#N	Nc1c(onn1)C#N	
InChI=1S/C3H2N4O/c4-1-2-3(5)6-7-8-2/h5H2	InChI=1S/C3H2N4O/c4-1-2-3(5)6-7-8-2/h5H2
