11
gdb 130305	3.6373	1.6839	1.15233	3.8706	59.97	-0.2615	-0.0802	0.1813	929.7148	0.066765	-484.785633	-484.779147	-484.778203	-484.816386	24.738	
N	-0.0445357076	 1.3806761009	 0.1588200053	-0.591803
C	 0.0621015733	 0.0183598403	 0.0367116502	 0.298665
N	-1.0079086487	-0.7654742909	-0.0078438214	-0.203437
O	-0.576287682	-2.1218082906	-0.0362587216	-0.226746
C	 0.754027414	-2.0618768134	-0.0290854301	 0.411831
C	 1.2351980188	-0.7940598496	 0.0163825125	 0.231423
O	 2.5588551767	-0.8212744551	 0.0225721333	-0.255144
N	 2.8714936705	-2.2902794085	-0.0248864779	-0.012589
N	 1.7929318375	-2.9352323253	-0.0502438799	-0.2014
H	 0.6844834313	 1.9148029301	-0.2898759581	 0.273736
H	-0.9721360739	 1.7389564921	-0.0220944624	 0.275464
185.1106	260.0222	277.3515	327.998	426.3791	437.5376	561.3342	586.3702	638.2774	645.5014	662.2137	687.4898	771.6498	815.316	921.0476	985.0382	1125.7532	1171.354	1354.8189	1391.2435	1448.7036	1510.65	1587.1948	1624.8739	1659.7319	3568.4317	3675.0052
NC1=NOC2=C1ON=N2	Nc1noc2c1onn2	
InChI=1S/C3H2N4O2/c4-2-1-3(9-6-2)5-7-8-1/h(H2,4,6)	InChI=1S/C3H2N4O2/c4-2-1-3(9-6-2)5-7-8-1/h(H2,4,6)
