10
gdb 132934	3.18367	1.4343	0.98882	4.0411	53.04	-0.2747	-0.0892	0.1855	1015.4831	0.052453	-557.84977	-557.843043	-557.842099	-557.881536	24.359	
F	 0.0135880235	-0.0090233892	 0.0031378104	-0.04199
C	-0.0305754361	 1.316466907	 0.0109339699	 0.041954
C	-1.1826969462	 2.0146574414	 0.0293156627	 0.000933
O	-1.1914805353	 3.3464547273	 0.0365433017	-0.203179
C	 0.03065189	 4.0990177811	 0.0249346951	 0.462982
O	-0.0758641203	 5.2833540806	 0.0325832062	-0.311906
N	 1.2037956958	 3.3748747294	 0.0062922208	-0.373857
C	 1.1678097162	 2.0959879181	 0.0001222133	 0.270922
F	 2.3015894298	 1.4320497287	-0.0183380398	-0.023072
H	-2.1671567473	 1.5616055057	 0.0393585097	 0.177211
76.9445	214.5402	278.7446	352.8192	400.2385	404.1262	471.5385	547.0962	622.9895	705.4713	739.8175	775.6749	781.1268	814.2319	933.5813	1102.6165	1243.4579	1278.3442	1329.8281	1492.8409	1608.1921	1734.2596	1900.1656	3215.6952
FC1=COC(=O)N=C1F	Fc1coc(=O)nc1F	
InChI=1S/C4HF2NO2/c5-2-1-9-4(8)7-3(2)6/h1H	InChI=1S/C4HF2NO2/c5-2-1-9-4(8)7-3(2)6/h1H
