11
gdb 23961	2.03	1.90977	0.98402	5.9682	72.24	-0.277	-0.088	0.189	1067.8721	0.06745	-414.458193	-414.451162	-414.450218	-414.490163	25.152	
N	 0.1583111448	-1.1341200613	-0.0057368198	-0.32617
C	 0.0564475885	 0.0192346893	 0.002082957	 0.255762
C	-0.0833137084	 1.4223015743	 0.0116954367	 0.212043
C	-1.1943467926	 2.2369855574	 0.03242801	 0.066664
C	-0.6997203081	 3.5815925736	 0.0320825847	-0.266351
C	 0.6540268189	 3.4777985121	 0.012368418	-0.0024
O	 1.0414816125	 2.1795971996	-0.0002444965	-0.160616
C	-2.5486848809	 1.8234484454	 0.0498805334	 0.215148
N	-3.6616195382	 1.5071986209	 0.064264273	-0.325713
H	-1.2896326854	 4.4830342191	 0.045226602	 0.158975
H	 1.451990779	 4.2014596397	 0.0048322315	 0.172657
107.94	157.0184	188.112	210.6724	465.3115	491.1793	510.8405	529.0176	631.4751	635.8748	651.5213	734.3606	793.515	860.6008	912.8152	1072.5438	1102.1173	1178.6561	1263.6568	1281.9424	1423.2654	1519.5497	1605.1468	2347.9622	2358.4947	3275.9862	3297.342
N#CC1=C(C=CO1)C#N	N#Cc1c(cco1)C#N	
InChI=1S/C6H2N2O/c7-3-5-1-2-9-6(5)4-8/h1-2H	InChI=1S/C6H2N2O/c7-3-5-1-2-9-6(5)4-8/h1-2H
