11
gdb 131974	2.16619	1.81309	0.98699	1.5298	62.63	-0.2822	-0.1048	0.1774	1054.871	0.063464	-521.9231	-521.91476	-521.913816	-521.95665	28.618	
N	-0.0721641224	 1.5306543185	 0.0089366283	-0.555837
C	 0.2555861887	 0.2231233721	 0.0000340647	 0.41923
C	-0.8915344787	-0.7357350476	 0.0015108241	 0.21502
N	-0.5639968232	-2.0157592189	-0.0072425702	 0.244864
N	-0.2611643696	-3.0952598791	-0.0141656712	-0.131522
O	 1.3865378327	-0.2292663531	-0.0088399704	-0.384579
N	-2.3014701124	-0.5089907439	 0.0105522655	 0.405919
O	-2.6864016816	 0.6631818575	 0.0185652918	-0.39266
O	-3.0393681231	-1.4889937449	 0.0091706855	-0.38594
H	 0.6795367326	 2.1995979705	 0.0083447194	 0.274587
H	-1.040195353	 1.8144046988	 0.0160782725	 0.290919
82.2424	96.7515	153.4367	186.0449	241.9908	328.1325	357.2399	405.3698	475.5841	547.363	553.7239	613.3052	668.466	744.6362	765.6967	835.7193	1096.3995	1166.2054	1266.064	1354.0298	1394.9183	1573.1079	1617.8069	1780.7093	2261.2465	3568.3725	3722.7412
NC1=C(N=NO1)N(=O)=O	NC(=O)[C]([N][N])N(=O)=O	
InChI=1S/C2H2N4O3/c3-1-2(6(7)8)4-5-9-1/h3H2	InChI=1S/C2H2N4O3/c3-1(7)2(5-4)6(8)9/h(H2,3,7)
