9
gdb 21987	5.65943	1.70111	1.30796	2.0828	48.13	-0.3254	-0.1226	0.2028	800.8618	0.048319	-466.511716	-466.505862	-466.504918	-466.542569	19.982	
O	-0.0652251665	 0.0146173296	 0.0033496378	-0.350821
N	-0.0085842333	 1.2381542108	 0.0069168994	 0.380195
O	 0.9927999988	 1.9269111002	 0.0027269074	-0.318962
C	-1.3000250888	 1.9076551558	 0.0173019047	 0.420351
N	-1.415303794	 3.2053059217	 0.0219973115	-0.099475
O	-2.746525752	 3.4280142566	 0.0313180473	-0.12448
N	-3.4691591773	 2.2535504256	 0.03234865	-0.043779
C	-2.5804233755	 1.3013829676	 0.0236860248	-0.05669
H	-2.8447573714	 0.2570160522	 0.022177447	 0.193662
62.4904	223.1849	226.3906	428.2626	535.5255	637.6743	655.4447	794.3728	838.4121	863.7369	917.9598	947.8856	1012.9501	1086.1236	1163.2066	1377.8914	1429.9615	1466.937	1584.3139	1661.5737	3295.4299
O=N(=O)C1=NON=C1	O=N(=O)c1nonc1	
InChI=1S/C2HN3O3/c6-5(7)2-1-3-8-4-2/h1H	InChI=1S/C2HN3O3/c6-5(7)2-1-3-8-4-2/h1H
