11
gdb 23769	3.37131	2.40377	1.40324	2.1669	57.44	-0.243	-0.0613	0.1816	773.7829	0.072942	-438.704439	-438.698412	-438.697468	-438.734773	22.357	
F	 0.0025311019	 0.0282522164	 0.0035928426	-0.040122
C	-0.0334470203	 1.3499817424	 0.0110449364	 0.194299
C	-1.1897763384	 2.0361322611	 0.0296418285	-0.126265
N	-1.2183970008	 3.426614317	 0.0373515168	-0.266395
C	-0.0886104766	 4.0132529133	 0.0257992104	 0.137056
O	 1.128594777	 3.4254292223	 0.0069494075	-0.219627
C	 1.2528038617	 2.0301464932	-0.0020136518	 0.315709
N	 2.3754799099	 1.4544282218	-0.0195955678	-0.523599
H	-2.144531841	 1.5234527045	 0.0392957014	 0.14012
H	 0.0021020392	 5.0942326715	 0.0303654672	 0.152875
H	 3.1387829374	 2.1307888865	-0.0259113511	 0.235948
124.9053	257.0374	309.2234	400.9448	474.9363	517.8971	583.3633	596.4941	751.3387	752.4231	855.8121	911.856	922.7773	950.8246	986.4949	1086.4138	1190.0572	1224.2165	1304.1198	1403.8112	1409.3206	1642.9459	1682.943	1762.7874	3204.6277	3208.3989	3501.7879
FC1=CN=COC1=N	FC1=C(OC=NC1)[NH]	
InChI=1S/C4H3FN2O/c5-3-1-7-2-8-4(3)6/h1-2,6H	InChI=1S/C4H4FN2O/c5-3-1-7-2-8-4(3)6/h2,6H,1H2
