11
gdb 48217	1.86964	1.44606	1.31804	2.7008	62.21	-0.3119	-0.1159	0.1961	1035.8077	0.061654	-451.553321	-451.544187	-451.543242	-451.588727	29.521	
O	-0.0481778742	-0.0330970144	-0.1909147335	-0.189838
C	 0.0556521125	 1.0764657932	 0.2265138467	 0.154968
C	 1.4073009703	 1.8901574883	 0.1526572178	-0.282956
C	 1.2531637707	 2.7321022582	-1.174688171	 0.154985
O	 0.8486036752	 3.8512282567	-1.1806390116	-0.189837
C	 1.5027330539	 2.7645640861	 1.3178579189	 0.312779
N	 1.5241761469	 3.4442057518	 2.2504157313	-0.294091
C	 2.5508537844	 0.9925459033	 0.0187720477	 0.312792
N	 3.4566862393	 0.2956731832	-0.1420731558	-0.294094
H	-0.7690622656	 1.6693853278	 0.6626828534	 0.157651
H	 1.5195265165	 2.1495847959	-2.075635934	 0.157641
32.6562	74.6891	131.45	141.1508	161.7899	190.1769	286.7943	392.1495	395.9323	506.6428	517.6824	572.3752	674.1705	750.9535	788.5282	969.6367	1013.928	1090.4077	1177.578	1384.1438	1396.9186	1840.1567	1868.3992	2371.8125	2374.4879	2978.5411	2979.7582
O=CC(C=O)(C#N)C#N	O=CC(C=O)(C#N)C#N	
InChI=1S/C5H2N2O2/c6-1-5(2-7,3-8)4-9/h3-4H	InChI=1S/C5H2N2O2/c6-1-5(2-7,3-8)4-9/h3-4H
