11
gdb 23795	4.1354	1.89425	1.29916	1.9587	57.86	-0.2444	-0.0832	0.1612	822.4005	0.073116	-434.840291	-434.834274	-434.833329	-434.870602	22.587	
F	 0.0538616485	 0.0867044267	 0.0022242724	-0.048719
C	-0.0480024381	 1.4009181527	 0.011009907	 0.40925
C	-1.2449705555	 2.0166337526	 0.0308104176	-0.326069
C	-1.2640935626	 3.4625041138	 0.0392571781	 0.448089
N	-2.3296574878	 4.1660217165	 0.0577626838	-0.54788
N	 0.0561307543	 3.9719500693	 0.0241491584	-0.296886
N	 1.2093919721	 3.2931015377	 0.0046068656	-0.02275
N	 1.1820164631	 2.02271083	-0.0022062396	-0.253912
H	-2.1810974682	 1.4756838613	 0.0405198695	 0.151144
H	-2.1346170428	 5.1678096812	 0.0607746617	 0.208875
H	 0.1987008869	 4.972937928	 0.0278773255	 0.278859
152.5909	201.6412	358.2361	428.9319	484.0184	544.1722	555.4085	656.7432	678.4087	757.7419	779.9221	797.6645	896.3318	949.9636	1016.3306	1101.826	1139.2162	1239.3486	1298.0861	1363.3557	1422.8166	1551.3062	1667.4572	1739.7572	3238.2755	3471.7928	3602.9342
FC1=CC(=N)NN=N1	Fc1cc([NH])[nH]nn1	
InChI=1S/C3H3FN4/c4-2-1-3(5)7-8-6-2/h1H,(H2,5,6,7)	InChI=1S/C3H8FN4/c4-2-1-3(5)7-8-6-2/h2-3,5-8H,1H2
