11
gdb 131924	4.34171	1.32687	1.07725	3.5693	59.75	-0.3027	-0.1086	0.1941	1008.8643	0.0673	-484.814321	-484.807661	-484.806717	-484.846708	22.965	
O	 0.012670152	 0.2105019426	-0.6663129032	-0.327641
N	-0.0304611539	 1.222757225	 0.0070228502	 0.403881
O	 0.8630842297	 1.7110299521	 0.6726624434	-0.327646
C	-1.3406901432	 1.9556736476	 0.0178082723	 0.446262
N	-1.2616029472	 3.2657868354	-0.0940371372	-0.241052
C	-2.4600869533	 3.8580177117	-0.0982736233	 0.09539
N	-3.6318031469	 3.237272347	 0.0365288625	-0.22099
C	-3.5459362778	 1.9130617827	 0.1610343326	 0.095389
N	-2.4142385562	 1.2018355526	 0.1377285898	-0.241055
H	-2.4744049872	 4.9378460152	-0.2178098524	 0.15873
H	-4.472041746	 1.3592781582	 0.2882160054	 0.15873
35.9309	134.8172	242.0449	358.4578	380.1335	385.7034	588.6874	691.395	741.1344	744.1587	860.4938	878.5419	989.5861	1008.8489	1047.6077	1181.8697	1199.4495	1246.9466	1297.2873	1419.5463	1419.73	1439.288	1579.42	1621.0712	1676.1413	3184.9405	3188.0372
O=N(=O)C1=NC=NC=N1	O=N(=O)c1ncncn1	
InChI=1S/C3H2N4O2/c8-7(9)3-5-1-4-2-6-3/h1-2H	InChI=1S/C3H2N4O2/c8-7(9)3-5-1-4-2-6-3/h1-2H
