11
gdb 23665	4.17823	2.00134	1.35318	3.5127	54.44	-0.265	-0.037	0.228	797.3157	0.074454	-434.942747	-434.936448	-434.935504	-434.973364	22.708	
N	-0.0079342636	 1.3215413613	 0.0075782919	-0.550172
C	 0.007292269	-0.0226016324	 0.0009627601	 0.469073
N	-1.1814872726	-0.6602976091	 0.0040198855	-0.308946
C	-1.0812120245	-1.9805484465	-0.0029438654	 0.080685
N	 0.0459359167	-2.7004773211	-0.0123247281	-0.321453
C	 1.1295145473	-1.9396098426	-0.014262127	 0.351649
F	 2.2775721446	-2.5803655471	-0.0233008419	-0.046159
N	 1.2108406612	-0.6281799756	-0.0082658983	-0.36387
H	 0.8592893019	 1.8281943257	 0.0055781565	 0.277852
H	-0.8885083714	 1.804264237	 0.0145662072	 0.27739
H	-2.0128762888	-2.5419999595	-0.0008578306	 0.133951
151.1267	192.2058	207.5765	353.6843	472.3482	527.0986	583.7434	585.2576	606.7953	768.4397	841.2466	848.7434	987.4714	1010.6296	1026.6965	1111.7114	1269.1031	1333.662	1373.3086	1474.747	1515.5385	1585.3557	1628.5077	1659.5952	3167.0519	3630.1719	3769.5703
NC1=NC=NC(F)=N1	Nc1ncnc(F)n1	
InChI=1S/C3H3FN4/c4-2-6-1-7-3(5)8-2/h1H,(H2,5,6,7,8)	InChI=1S/C3H3FN4/c4-2-6-1-7-3(5)8-2/h1H,(H2,5,6,7,8)
