10
gdb 23856	3.42393	2.37679	1.40292	1.4443	54.65	-0.2779	-0.0913	0.1866	760.5596	0.059784	-454.663499	-454.657535	-454.656591	-454.693809	21.984	
F	 0.0470594008	 0.0971183347	 0.1854770714	-0.044599
C	 0.0238049221	 1.411473589	 0.0478566432	 0.341662
N	-1.1261437641	 1.9566953728	-0.0297192835	-0.12699
O	-1.1727797476	 3.3326724228	-0.1743329225	-0.218714
N	-0.0353379252	 4.1100368189	-0.2351864982	-0.047137
C	 1.1071463158	 3.53219259	-0.1543569617	 0.06212
C	 1.3100124181	 2.0972045087	-0.0007963974	 0.128358
N	 2.4754521281	 1.5769248029	 0.0744137781	-0.507567
H	 1.9731688249	 4.1851059572	-0.2070702646	 0.169876
H	 2.407306097	 0.561950393	 0.1792519252	 0.242991
117.4966	306.9736	314.9662	405.2874	457.7125	530.1471	547.3382	607.4287	730.5986	756.7299	817.2495	912.435	929.6349	960.4002	987.9027	1125.4377	1295.0426	1328.3486	1446.8281	1643.7704	1655.8345	1710.2421	3193.8039	3460.5118
FC1=NON=CC1=N	FC1=NON=C[C]1[NH]	
InChI=1S/C3H2FN3O/c4-3-2(5)1-6-8-7-3/h1,5H	InChI=1S/C3H2FN3O/c4-3-2(5)1-6-8-7-3/h1,5H
