10
gdb 130620	1.97863	1.16265	1.13542	2.7801	52.34	-0.2778	-0.1443	0.1335	1137.4377	0.048795	-504.763168	-504.75372	-504.752776	-504.801988	28.234	
O	 0.3455062972	 0.0757452246	 0.5681604545	-0.247879
C	-0.1099957585	 1.1650925862	 0.362893801	 0.22421
C	-1.4241764125	 1.5922729891	-0.1569688536	-0.05026
N	-1.5251236891	 2.8688038104	-0.2236994696	-0.031052
O	-0.3187652589	 3.4820385668	 0.2282876817	-0.230557
N	 1.6825602159	 2.6512326822	-3.4609169634	 0.008995
N	 1.1535741518	 2.3411125775	-2.54963332	-0.004978
C	 0.5856730438	 2.5221536625	 0.6039484084	 0.435566
O	 1.6712170165	 2.7621740706	 1.0267115768	-0.282808
H	-2.2537238662	 0.96863214	-0.463232586	 0.178764
18.9382	24.756	49.3102	68.8565	71.9025	164.0998	315.2104	323.867	504.0178	541.371	636.2396	740.7791	798.982	809.938	851.2474	906.7243	1047.5722	1218.4496	1270.9222	1623.6754	1861.0154	1902.1475	2435.769	3232.6073	18.9385	24.7562	49.3102	68.8566	71.9025	164.0999	315.2103	323.8673	504.0178	541.3711	636.2397	740.7792	798.982	809.9377	851.2476	906.7239	1047.572	1218.4494	1270.9217	1623.6759	1861.015	1902.1474	2435.769	3232.6073
O=C1C=NON=NC1=O	O=C1C=NOC1=O.N#N	
InChI=1S/C3HN3O3/c7-2-1-4-9-6-5-3(2)8/h1H	InChI=1S/C3HNO3.N2/c5-2-1-4-7-3(2)6;1-2/h1H;
