11
gdb 5061	3.61285	2.52024	1.77421	4.5143	58.25	-0.2615	-0.1133	0.1481	697.7962	0.073839	-393.595801	-393.589921	-393.588977	-393.625813	21.493	
O	-0.1082248142	 0.4556419171	-0.9946956008	-0.288997
C	-0.0280093118	 1.2939003861	-0.1426810404	 0.379249
N	-1.167039362	 1.7917501371	 0.5413314622	-0.191403
C	-1.4551686239	 3.0272337405	 0.3751490108	-0.010666
C	-0.6301711737	 4.0095912738	-0.3469125951	 0.013153
N	 0.6559420979	 4.0256118907	-0.4032725083	-0.200672
C	 1.422605052	 3.0455873644	 0.2231682586	 0.079489
N	 1.180871443	 1.797543949	 0.3653431438	-0.216023
H	-2.3813224387	 3.4031172837	 0.8174779119	 0.142972
H	-1.1554010788	 4.8458151421	-0.8140138606	 0.143314
H	 2.3752084902	 3.4275125955	 0.5891630678	 0.149585
139.6863	259.217	302.0711	347.7648	492.7542	522.9139	638.24	696.8343	818.216	857.3518	883.2009	920.855	944.7682	1001.5058	1033.6417	1054.4036	1150.0277	1390.8796	1410.2838	1413.4298	1588.2611	1661.0771	1685.6071	1842.5635	3096.3153	3113.3208	3146.2265
O=C1N=CC=NC=N1	O=c1nccncn1	
InChI=1S/C4H3N3O/c8-4-6-2-1-5-3-7-4/h1-3H	InChI=1S/C4H3N3O/c8-4-6-2-1-5-3-7-4/h1-3H
