11
gdb 130905	7.63591	0.87535	0.78533	3.2874	68.	-0.2906	-0.1049	0.1857	1296.0334	0.065514	-451.545136	-451.537827	-451.536883	-451.577623	25.201	
O	-0.0267227179	-0.0483600157	-0.0032757149	-0.220231
C	 0.0047516113	 1.15236852	 0.0059072568	 0.098518
C	 1.2538252433	 1.964323773	-0.0001846248	 0.287344
N	 2.4471099682	 1.3996292274	-0.0170213133	-0.136695
O	 3.3538931219	 2.4225590566	-0.0178869665	-0.18446
C	 2.6932137546	 3.6060207343	-0.0014442476	 0.363066
C	 1.3503626146	 3.3829843322	 0.0105467831	-0.41479
C	 3.4643426305	 4.7925329046	 0.0004045343	 0.2526
N	 4.076703093	 5.7740457319	 0.0022020071	-0.308683
H	-0.9193468695	 1.7685084521	 0.0199914485	 0.097864
H	 0.5589798001	 4.1135659134	 0.0246858271	 0.165468
74.86	132.6009	157.1224	231.9831	283.3015	420.6912	492.719	552.2415	628.4907	667.3929	704.1881	778.8371	859.7645	981.5878	1016.9644	1031.3134	1059.2092	1133.6102	1243.8575	1387.8239	1455.5881	1474.8045	1604.8813	1828.6372	2359.5496	2909.3191	3286.1639
O=CC1=NOC(=C1)C#N	O=Cc1noc(c1)C#N	
InChI=1S/C5H2N2O2/c6-2-5-1-4(3-8)7-9-5/h1,3H	InChI=1S/C5H2N2O2/c6-2-5-1-4(3-8)7-9-5/h1,3H
