10
gdb 8614	2.17113	2.13927	1.51647	4.7739	57.9	-0.3255	-0.0582	0.2672	849.8051	0.057244	-376.271284	-376.26319	-376.262246	-376.303696	27.928	
O	-0.0721745194	 1.4224199185	-0.0024039538	-0.397816
C	 0.0065689558	 0.0110510879	 0.0157947824	-0.093944
C	 0.7098577808	-0.5011946139	 1.2006419303	 0.327104
C	 1.3094238061	-0.8773638958	 2.168861436	-0.413513
C	-1.3917814443	-0.4854053613	 0.008286187	 0.347914
N	-2.4721436527	-0.8890352202	 0.0105649289	-0.30694
C	 0.6947430919	-0.489455561	-1.2100013145	 0.302992
N	 1.2600225167	-0.8354244048	-2.155099789	-0.311773
H	 0.8165161975	 1.7680626728	 0.1534875878	 0.312231
H	 1.8341579477	-1.2201582722	 3.028229645	 0.233746
121.0336	125.8552	154.8761	217.3025	241.4166	278.0581	351.0584	505.7346	520.5164	553.5342	571.6136	581.2401	687.9738	694.6623	709.2252	1024.0249	1053.0305	1090.4496	1371.0902	2248.3156	2364.082	2381.2401	3492.435	3788.3484
OC(C#C)(C#N)C#N	OC(C#C)(C#N)C#N	
InChI=1S/C5H2N2O/c1-2-5(8,3-6)4-7/h1,8H	InChI=1S/C5H2N2O/c1-2-5(8,3-6)4-7/h1,8H
