11
gdb 46180	1.89367	1.68857	1.33566	4.3991	62.12	-0.3125	-0.0914	0.2211	989.217	0.063643	-451.533478	-451.525463	-451.524519	-451.566695	27.446	
O	-0.0492807571	 0.0318207156	-0.3336744935	-0.207024
C	-0.0679001138	 1.1808164292	-0.0747664601	 0.323927
C	-1.0609244425	 2.2385461571	 0.3900387334	-0.185663
O	-0.0187997492	 3.2444342911	 0.3709218848	-0.279903
C	 1.0237731787	 2.3589893762	-0.0673776519	 0.008892
C	 2.0831019633	 2.1841221206	 0.9242643218	 0.298104
N	 2.8858955531	 2.0087362687	 1.7360372085	-0.299657
C	 1.5454817672	 2.69677424	-1.3901925989	 0.298112
N	 1.9114579074	 2.9379038284	-2.4588979542	-0.299654
H	-1.8691554911	 2.4540719622	-0.3175386158	 0.171435
H	-1.472235606	 2.075328301	 1.3923036759	 0.171431
88.8895	117.1391	123.2828	159.669	254.1594	361.7979	396.4485	504.9603	544.9538	564.0298	582.042	615.5741	732.3177	936.1168	949.6757	995.5978	1021.8989	1096.991	1126.5601	1151.2438	1304.6058	1476.852	1969.8303	2359.3639	2361.5559	3043.0121	3097.6559
O=C1COC1(C#N)C#N	O=C1COC1(C#N)C#N	
InChI=1S/C5H2N2O2/c6-2-5(3-7)4(8)1-9-5/h1H2	InChI=1S/C5H2N2O2/c6-2-5(3-7)4(8)1-9-5/h1H2
