9
gdb 23855	3.42094	2.4953	1.44285	2.9309	47.71	-0.2844	-0.091	0.1934	730.601	0.048327	-474.603125	-474.59732	-474.596376	-474.633506	20.648	
F	 0.0336398565	 0.0724938326	 0.0038294063	-0.009502
C	-0.0198492339	 1.3795318235	 0.010687309	 0.252455
N	-1.1919235711	 1.8932368224	 0.0281503422	-0.116561
O	-1.2171711394	 3.2875268795	 0.0355191575	-0.198921
C	-0.0575671639	 3.9626258536	 0.0242434208	 0.182218
N	 1.1321499985	 3.5015067163	 0.0069010647	-0.308017
C	 1.2813192573	 2.1103737444	-0.0019956243	 0.321366
O	 2.3390278616	 1.5370489094	-0.0181747214	-0.299527
H	-0.2635778655	 5.0307256283	 0.0322439853	 0.17649
91.8877	315.6897	316.627	412.8128	507.3006	530.3779	562.7955	599.7838	742.6277	819.3103	941.0817	967.3528	985.5983	1054.6373	1236.4387	1386.1825	1429.7434	1648.819	1660.1206	1824.5893	3179.3239
FC1=NOC=NC1=O	Fc1nocnc1=O	
InChI=1S/C3HFN2O2/c4-2-3(7)5-1-8-6-2/h1H	InChI=1S/C3HFN2O2/c4-2-3(7)5-1-8-6-2/h1H
