11
gdb 128882	2.00128	1.93634	0.98414	7.6039	69.84	-0.2922	-0.0603	0.2319	1064.849	0.06883	-410.63426	-410.627257	-410.626313	-410.666183	25.066	
N	 0.0125096515	-1.1750711025	-0.0043377322	-0.331474
C	 0.0037261463	-0.0179224174	 0.0025894909	 0.207225
C	-0.0117610138	 1.3964402397	 0.0108690241	 0.034727
C	-1.1219501106	 2.222945115	 0.0296806169	-0.087125
N	-0.6473484467	 3.4852484537	 0.0307208308	-0.179196
N	 0.689174567	 3.5660878153	 0.0143212481	-0.261796
C	 1.0954400769	 2.297300623	 0.0022324567	 0.195571
C	 2.4780968846	 1.9653249126	-0.0170395847	 0.262196
N	 3.5947177941	 1.6660248904	-0.0328107924	-0.327285
H	-2.1747897507	 1.9934916246	 0.0416767935	 0.184104
H	-1.1804557786	 4.3406255054	 0.0422246883	 0.303054
106.6244	160.9412	197.6777	213.7526	478.3499	489.1433	518.6905	552.1319	602.2399	643.7099	655.3013	679.1764	758.166	834.1962	954.7619	1097.0604	1138.2586	1236.9503	1327.5056	1373.6258	1456.2889	1501.7642	1574.02	2358.2209	2366.3961	3281.14	3656.9332
N#CC1=CNN=C1C#N	N#Cc1c[nH]nc1C#N	
InChI=1S/C5H2N4/c6-1-4-3-8-9-5(4)2-7/h3H,(H,8,9)	InChI=1S/C5H2N4/c6-1-4-3-8-9-5(4)2-7/h3H,(H,8,9)
