10
gdb 132344	2.10824	1.61903	0.91577	3.6436	54.36	-0.2957	-0.073	0.2227	1095.4848	0.052769	-549.927723	-549.920021	-549.919077	-549.961345	26.013	
O	-0.0887787574	 1.2462769403	 0.0094596447	-0.348488
C	-0.049119576	-0.0807821849	 0.0025326412	 0.512682
N	 1.2343481516	-0.5654471391	-0.0067523656	-0.458747
C	 1.7205884275	-1.7009647358	-0.0152358502	 0.582695
O	 2.450736841	-2.5964393586	-0.0241809256	-0.224721
O	-0.3168704428	-2.8535629701	-0.0099885717	-0.347107
C	-1.2181693061	-2.0501130478	-0.0014118919	 0.404535
F	-2.4724552182	-2.4811437546	 0.0034087952	-0.05431
N	-1.1875142862	-0.6877453134	 0.0053997909	-0.389108
H	 0.8198917466	 1.578216644	 0.006335153	 0.322569
47.2677	108.1091	146.0158	187.95	278.4175	426.2919	449.352	558.2712	572.3598	582.0497	631.9592	730.1704	749.0967	813.2057	862.1084	1023.4659	1211.6458	1345.0223	1376.3124	1506.8438	1665.4536	1790.1232	2321.9085	3779.3732
OC1=NC(=O)OC(F)=N1	OC(=[N]=C=O)[N]C(=O)F	
InChI=1S/C3HFN2O3/c4-1-5-2(7)6-3(8)9-1/h(H,6,7,8)	InChI=1S/C3HFN2O3/c4-2(8)6-3(9)5-1-7/h9H
