11
gdb 21625	7.64623	1.33338	1.13596	5.696	54.75	-0.2615	-0.0745	0.187	942.9171	0.072412	-430.727417	-430.720599	-430.719655	-430.758587	24.105	
N	-0.0319863363	 1.3343615591	 0.1268111143	-0.595649
C	-0.0533724979	-0.0142980809	 0.0441477675	 0.511786
N	-1.0903685156	-0.8076721858	 0.0353928435	-0.37573
C	-0.4835775863	-2.0396112468	-0.0022371816	 0.266733
C	-1.291007183	-3.2912277373	-0.023425665	 0.101412
O	-0.8308783909	-4.4015611132	-0.0604257452	-0.229599
N	 0.8262792277	-2.0327037388	-0.019714421	-0.16038
O	 1.125043587	-0.656752813	 0.0118953685	-0.194898
H	 0.8156221148	 1.8063377653	-0.1425011375	 0.28389
H	-0.8983247368	 1.8046928718	-0.0773273599	 0.287719
H	-2.3814009927	-3.0903719306	-0.0013475236	 0.104716
95.5077	189.354	215.6199	344.7105	366.0972	391.4182	424.9663	496.0485	676.7819	751.8533	774.0015	791.3633	926.844	1007.6365	1040.3668	1052.9057	1117.4275	1332.6765	1408.7842	1442.2323	1546.4262	1599.7179	1692.3172	1828.8968	2935.3772	3608.8713	3726.8093
NC1=NC(C=O)=NO1	Nc1nc(C=O)no1	
InChI=1S/C3H3N3O2/c4-3-5-2(1-7)6-8-3/h1H,(H2,4,5,6)	InChI=1S/C3H3N3O2/c4-3-5-2(1-7)6-8-3/h1H,(H2,4,5,6)
