11
gdb 20306	6.18977	1.63033	1.29044	2.6219	68.28	-0.2448	-0.0834	0.1614	852.5439	0.072888	-356.412569	-356.406345	-356.405401	-356.442996	22.771	
C	 0.0148006188	-1.1810646018	-0.0037422822	-0.363253
C	 0.0250495159	 0.0216867554	 0.0024904299	 0.264261
C	-0.011907834	 1.4442774624	 0.0105982762	 0.168802
C	-1.2333410324	 2.141931567	 0.0306345789	-0.04406
N	-1.2618957189	 3.4631601385	 0.0380626408	-0.222816
C	-0.058233122	 4.0476222571	 0.0250985364	 0.105561
N	 1.1262615951	 3.4359262568	 0.0060056681	-0.171831
N	 1.155483206	 2.111058992	-0.0014487699	-0.23485
H	 0.0228121528	-2.2436332224	-0.0094318877	 0.212886
H	-2.1794541321	 1.6070345628	 0.0404159869	 0.141965
H	-0.0282024093	 5.132853112	 0.0304811626	 0.143334
130.6255	155.504	303.9535	384.492	512.6113	535.6788	574.1938	645.9689	647.8434	671.8281	796.2201	829.8975	949.483	1010.2437	1059.3405	1092.4188	1145.7271	1213.7172	1280.6937	1399.9518	1432.5353	1529.2693	1595.3526	2236.0648	3169.2478	3191.9676	3499.0877
C#CC1=CN=CN=N1	C#Cc1cncnn1	
InChI=1S/C5H3N3/c1-2-5-3-6-4-7-8-5/h1,3-4H	InChI=1S/C5H3N3/c1-2-5-3-6-4-7-8-5/h1,3-4H
