10
gdb 21435	7.44217	1.37783	1.16259	1.0488	52.92	-0.2763	-0.1104	0.1659	911.3052	0.059374	-450.576123	-450.569679	-450.568735	-450.607185	22.355	
N	-0.2153608662	 1.2810367255	 0.0113025448	-0.565683
C	-0.0296525555	 0.0471095118	 0.00321267	 0.514918
O	 1.1473272286	-0.6703230404	-0.0069200562	-0.226787
N	 0.8494703555	-2.0414040185	-0.0133578881	-0.129326
C	-0.4330923701	-2.087096156	-0.0071414051	 0.332047
O	-1.0467681101	-0.8777729414	 0.0029915739	-0.19978
C	-1.2834722691	-3.3099916213	-0.0099208303	 0.09816
O	-0.8329590252	-4.4223904866	-0.0187633989	-0.208452
H	 0.6626251521	 1.7934834282	 0.0098192745	 0.256382
H	-2.36747504	-3.0853356115	-0.0031790345	 0.128522
96.5912	180.0843	186.5587	288.7214	408.5975	510.5388	636.76	724.0611	745.8772	778.6223	788.0508	921.1117	932.0023	986.0277	1025.1013	1048.8997	1240.162	1319.658	1432.8276	1639.7462	1825.5402	1834.7987	2958.3883	3553.3906
N=C1ON=C(O1)C=O	[NH][C@@H]1ON=C(O1)C=O	
InChI=1S/C3H2N2O3/c4-3-7-2(1-6)5-8-3/h1,4H	InChI=1S/C3H3N2O3/c4-3-7-2(1-6)5-8-3/h1,3-4H/t3-/m0/s1
