11
gdb 21700	3.48734	2.48383	1.45111	3.1986	59.6	-0.2507	-0.0872	0.1636	762.587	0.07177	-426.810511	-426.803774	-426.80283	-426.841482	24.723	
N	 0.0019402879	 1.3257529894	-0.0238653362	-0.544066
C	-0.0049670767	-0.0205518406	 0.0174760626	 0.431952
N	-1.1271958734	-0.6748044742	 0.0898009526	-0.194368
O	-1.0171794564	-2.0619183223	 0.1698206902	-0.215533
N	 0.1944618106	-2.7309203619	 0.1729634243	 0.080849
N	 1.2645819786	-2.1019808883	 0.0868211024	-0.210649
C	 1.2913055451	-0.6973058917	-0.0131232893	 0.349307
N	 2.3696312183	-0.0292174894	-0.129456367	-0.508556
H	 0.8836087949	 1.772996907	-0.2159540602	 0.291254
H	-0.8629386876	 1.8298703787	-0.1227517076	 0.275731
H	 3.1737809386	-0.6612025166	-0.1396323719	 0.24408
85.9266	213.3395	278.0422	321.4953	406.9675	475.4384	525.4335	538.2443	578.5846	606.9954	723.9057	755.5699	808.8692	917.3656	929.2439	984.5381	1090.0127	1148.014	1313.3584	1484.5498	1562.6953	1598.925	1646.8691	1715.5536	3461.0645	3597.9681	3734.2347
NC1=NON=NC1=N	NC1=NO[N]N=C1[NH]	
InChI=1S/C2H3N5O/c3-1-2(4)6-8-7-5-1/h3H,(H2,4,6)	InChI=1S/C2H3N5O/c3-1-2(4)6-8-7-5-1/h3H,(H2,4,6)
