10
gdb 23641	4.2037	2.01525	1.36221	3.8726	52.13	-0.2736	-0.0813	0.1923	780.2996	0.061265	-454.775252	-454.76939	-454.768445	-454.805695	21.172	
F	 0.0393321293	 0.1020693091	 0.0024775975	-0.030086
C	-0.040805451	 1.4082002599	 0.0111962553	 0.356986
N	-1.2037593239	 1.9363438907	 0.0299507596	-0.315524
C	-1.2798709339	 3.3077776982	 0.0388779932	 0.449136
N	-2.3452193618	 3.9715993093	 0.0565641944	-0.504619
O	-0.0138235598	 4.0107269761	 0.0253136711	-0.205674
C	 1.1028320015	 3.3009192707	 0.0058095624	 0.163154
N	 1.1919772881	 2.0191471505	-0.0023513087	-0.323391
H	-2.1591696143	 4.972625519	 0.0594988057	 0.240434
H	 1.9929412858	 3.9250606766	-0.0025484905	 0.169584
102.3128	196.6164	392.1245	420.0151	536.1557	552.6809	595.0084	708.6587	720.3781	800.0853	851.7447	856.9356	956.9246	1005.5382	1096.4952	1190.1386	1285.5533	1369.3082	1427.1154	1609.0161	1711.0545	1795.2497	3185.8581	3527.4018
FC1=NC(=N)OC=N1	FC1=NCOC(=N1)[NH]	
InChI=1S/C3H2FN3O/c4-2-6-1-8-3(5)7-2/h1,5H	InChI=1S/C3H3FN3O/c4-2-6-1-8-3(5)7-2/h5H,1H2
