11
gdb 131036	7.48104	0.91816	0.81779	3.9824	62.89	-0.2882	-0.1132	0.175	1252.802	0.065125	-484.854546	-484.847236	-484.846292	-484.887085	24.623	
O	-0.1246558011	-0.0003970919	-0.0013327196	-0.207586
C	-0.0523596403	 1.1857993012	 0.0081253276	 0.215897
N	 1.1923367149	 1.8955698641	 0.0005633168	 0.05925
N	 2.4181842676	 1.3161516464	-0.0178386373	-0.06504
N	 3.2668703643	 2.2840965518	-0.0189688558	-0.203995
C	 2.5401732843	 3.4513601681	-0.0008118526	 0.304627
C	 3.1058587846	 4.8213869442	 0.0047962577	 0.106675
O	 4.2848268009	 5.0555207721	-0.0061251263	-0.222824
N	 1.2379086869	 3.2247990853	 0.0115103931	-0.251819
H	-0.8843353462	 1.9057101629	 0.0234396017	 0.15114
H	 2.3305172442	 5.6129772957	 0.0201508646	 0.113673
76.9621	144.098	152.249	244.3876	268.1531	303.6653	407.8011	618.027	695.2284	747.3052	771.993	779.5469	975.5767	1029.0176	1035.4001	1080.2421	1182.8951	1283.2984	1334.3399	1397.4869	1408.9866	1438.7099	1524.9869	1825.7416	1872.0331	2943.4358	3045.2054
O=CN1N=NC(C=O)=N1	O=Cn1nnc(C=O)n1	
InChI=1S/C3H2N4O2/c8-1-3-4-6-7(2-9)5-3/h1-2H	InChI=1S/C3H2N4O2/c8-1-3-4-6-7(2-9)5-3/h1-2H
