11
gdb 129175	3.07501	1.42015	0.97148	1.4338	69.57	-0.2347	-0.0994	0.1353	1074.9237	0.066105	-484.873302	-484.865984	-484.86504	-484.905567	26.27	
N	 0.0900680677	 1.223620116	 0.0071585352	-0.56728
C	-0.0375987355	-0.0265881618	 0.0010503091	 0.490936
N	-1.229174256	-0.728738726	 0.0038713769	-0.397448
C	-1.0653234261	-2.1134463063	-0.005019305	 0.375654
C	 0.3943734785	-2.2136676162	-0.0141745319	 0.281752
O	 0.9880845662	-0.9585128081	-0.0104827952	-0.243063
N	 1.1149808716	-3.2803785277	-0.0248181734	 0.097168
N	 1.727129159	-4.2434007565	-0.0340361196	-0.210756
O	-1.9201468146	-2.9632417344	-0.0049652279	-0.363281
H	 1.0685394233	 1.5003299248	 0.0028442289	 0.2426
H	-2.1245565341	-0.2676031739	 0.0116449528	 0.293717
97.8744	144.6085	155.5803	295.2259	352.5643	447.4774	470.0098	526.0927	547.0501	650.2632	680.303	703.5287	725.2087	788.1969	792.5053	959.4544	1062.3633	1118.848	1275.0478	1348.3041	1356.7678	1467.389	1813.4533	1852.1545	2174.6908	3543.1777	3668.5515
N=C1NC2=C(O1)N=NO2	[NH][C]1NC(=O)[C](O1)[N][N]	
InChI=1S/C3H2N4O2/c4-3-5-1-2(8-3)6-7-9-1/h(H2,4,5)	InChI=1S/C3H2N4O2/c4-3-6-1(8)2(7-5)9-3/h(H2,4,6,8)
