10
gdb 21772	3.34892	2.53511	1.44287	5.5959	51.72	-0.2817	-0.079	0.2027	750.848	0.060965	-450.610187	-450.604025	-450.603081	-450.640858	22.133	
O	-0.0264493949	-0.0220092317	 0.1622651992	-0.300893
C	-0.0063766278	 1.1754742485	 0.0684975343	 0.31715
N	-1.1477232134	 1.9564130077	 0.0102896526	-0.354956
C	-1.1056306523	 3.3245540768	-0.0962386299	 0.141707
N	-0.0530372496	 4.0469066421	-0.1545338125	-0.092015
O	 1.1745887776	 3.3553693109	-0.103245319	-0.256852
C	 1.2871978786	 1.9904656435	 0.0023202171	 0.360653
O	 2.3676614978	 1.4905804548	 0.0401786212	-0.268719
H	-2.0348237175	 1.4708177141	 0.0500359733	 0.282058
H	-2.0537110382	 3.8487854733	-0.1349715261	 0.171867
96.9285	166.1525	344.5225	429.968	504.453	516.1407	560.295	572.3884	666.4631	706.2473	808.4677	913.5492	932.2711	977.161	1078.4836	1115.4692	1301.8006	1362.999	1474.6684	1711.1648	1843.698	1876.4127	3212.903	3587.896
O=C1NC=NOC1=O	O=c1[nH]cnoc1=O	
InChI=1S/C3H2N2O3/c6-2-3(7)8-5-1-4-2/h1H,(H,4,5,6)	InChI=1S/C3H2N2O3/c6-2-3(7)8-5-1-4-2/h1H,(H,4,5,6)
