11
gdb 21846	8.0692	1.23685	1.08429	3.973	54.21	-0.2849	-0.0354	0.2495	977.7012	0.072034	-434.542025	-434.535577	-434.534633	-434.573398	22.339	
O	-0.0269379704	-0.0144045632	 0.1054377207	-0.24212
C	-0.0115617317	 1.159646402	-0.0674853689	 0.167091
O	 1.0902695066	 1.9099627291	 0.2921338405	-0.225786
C	 1.0118784671	 3.2598431751	 0.1955611979	 0.492606
N	-0.1158324949	 3.9131924356	 0.343995366	-0.220694
O	 0.2301909105	 5.2504103477	 0.1881351692	-0.16275
C	 1.5508707377	 5.3407140284	-0.0296678826	 0.107447
C	 2.1235195104	 4.1121304969	-0.0406665233	-0.366554
H	-0.8037811932	 1.7735669216	-0.518843756	 0.139077
H	 1.9362629208	 6.3401998225	-0.15871808	 0.166599
H	 3.152871977	 3.8377356843	-0.1913610136	 0.145085
77.9557	124.5906	188.3812	361.9554	438.4621	511.8183	604.9881	721.1197	797.7254	826.7983	880.0216	919.1332	959.8279	1035.7318	1045.5288	1068.1151	1091.2596	1165.4159	1315.0487	1405.6673	1453.9819	1500.0839	1614.5188	1887.3044	3055.8036	3268.1618	3299.7812
O=COC1=NOC=C1	O=COc1nocc1	
InChI=1S/C4H3NO3/c6-3-7-4-1-2-8-5-4/h1-3H	InChI=1S/C4H3NO3/c6-3-7-4-1-2-8-5-4/h1-3H
