11
gdb 5355	6.22539	1.59693	1.27091	3.413	64.61	-0.2822	-0.0904	0.1918	853.942	0.075293	-356.502851	-356.496966	-356.496022	-356.533042	21.261	
N	 0.0299948426	-1.1474516921	-0.004571014	-0.30985
C	-0.0110665861	 0.007846551	 0.0035851786	 0.248986
C	-0.0136995231	 1.448979424	 0.0109005526	 0.231285
N	-1.2048504763	 2.061118943	 0.0299200106	-0.289432
C	-1.1693165707	 3.3920316965	 0.0363603042	 0.07524
N	-0.0846114015	 4.1716717037	 0.0258967901	-0.234621
C	 1.0893091653	 3.5389493834	 0.0070090627	 0.03128
C	 1.1901525349	 2.1520851007	-0.0014847158	-0.171728
H	-2.1310638146	 3.8977098998	 0.0517439533	 0.139073
H	 1.9804509423	 4.1614901784	-0.0016548754	 0.138557
H	 2.1449409473	 1.6422269715	-0.0167971869	 0.14121
140.4979	170.1493	353.3224	395.6341	477.4251	571.538	601.226	690.4821	803.9123	808.8002	875.2828	992.9217	1004.5363	1028.5668	1095.971	1191.2477	1228.775	1259.042	1328.8578	1420.4793	1491.0515	1587.5874	1606.9708	2357.7456	3167.4173	3179.0602	3221.2121
N#CC1=NC=NC=C1	N#Cc1ncncc1	
InChI=1S/C5H3N3/c6-3-5-1-2-7-4-8-5/h1-2,4H	InChI=1S/C5H3N3/c6-3-5-1-2-7-4-8-5/h1-2,4H
