10
gdb 128883	1.99606	1.93427	0.98234	4.5309	65.47	-0.3148	-0.0912	0.2237	1052.2989	0.0553	-430.473538	-430.46663	-430.465686	-430.505464	24.284	
N	 0.0453235951	-1.1466767339	-0.0043328072	-0.318351
C	 0.0211342611	 0.0097011917	 0.0025649163	 0.219393
C	-0.0067929761	 1.4233690643	 0.0108974256	-0.035616
C	-1.0912774704	 2.2514877313	 0.029542924	 0.02479
O	-0.6975209896	 3.5241401897	 0.0314717887	-0.137571
N	 0.6808510171	 3.5938954918	 0.0141503341	-0.169513
C	 1.094273679	 2.3446755829	 0.0022100972	 0.245181
C	 2.4835760644	 2.0367258943	-0.0172697488	 0.276236
N	 3.6035036849	 1.7528846161	-0.0332053464	-0.308082
H	-2.1541225755	 2.0684716319	 0.0421407164	 0.203533
104.4066	161.7175	199.1513	212.1454	465.6811	481.8126	514.9698	553.5774	617.9313	637.9788	648.3244	754.199	875.8846	932.0837	957.0889	1161.5979	1191.9319	1299.091	1392.9987	1487.1558	1606.1643	2364.3991	2373.1734	3280.3197
N#CC1=CON=C1C#N	N#Cc1conc1C#N	
InChI=1S/C5HN3O/c6-1-4-3-9-8-5(4)2-7/h3H	InChI=1S/C5HN3O/c6-1-4-3-9-8-5(4)2-7/h3H
