11
gdb 27404	2.09462	2.03961	1.03337	3.8371	54.83	-0.2694	-0.0328	0.2366	1014.8034	0.067164	-525.894664	-525.887859	-525.886915	-525.926381	25.063	
O	-0.1682472687	 1.2517599315	 0.0101659611	-0.369756
C	 0.0332766829	-0.055315372	 0.0023970955	 0.511382
N	 1.1750859138	-0.6080685124	-0.0066044978	-0.42139
C	 1.230253189	-2.0258738056	-0.0140156626	 0.400309
O	 2.276965923	-2.6117283118	-0.0233331974	-0.320699
N	-0.0071430762	-2.7202165999	-0.0111564786	-0.42139
C	-1.0753643304	-2.0359923432	-0.0018726346	 0.511382
O	-2.2949035774	-2.5476835717	 0.0019741941	-0.369756
O	-1.1741348211	-0.680112268	 0.0057167804	-0.184237
H	 0.7086518529	 1.6640317237	 0.007530505	 0.332077
H	-2.1877995278	-3.5107123505	-0.003640715	 0.332077
99.0614	188.5316	203.5631	359.4765	396.1617	551.6862	554.0826	572.7832	573.2528	641.4496	669.9185	733.3206	760.5236	814.8708	916.4741	1005.3113	1010.6318	1197.4516	1234.0968	1274.2842	1416.5101	1487.7173	1658.3583	1770.4961	1856.4328	3766.982	3768.3392
OC1=NC(=O)N=C(O)O1	Oc1nc(=O)nc(O)o1	
InChI=1S/C3H2N2O4/c6-1-4-2(7)9-3(8)5-1/h(H2,4,5,6,7,8)	InChI=1S/C3H2N2O4/c6-1-4-2(7)9-3(8)5-1/h(H2,4,5,6,7,8)
