11
gdb 132703	3.23322	1.39319	0.97365	1.6367	55.94	-0.2645	-0.0488	0.2157	1035.4657	0.066062	-537.995041	-537.98847	-537.987526	-538.026296	24.66	
O	 0.1091566926	 1.3269892178	 0.0828325046	-0.392121
C	 0.0716319892	-0.0054385875	 0.0383531909	 0.334912
N	 0.0809255135	-0.6167769826	-1.1374187861	-0.396418
C	 0.0418167795	-1.9418733521	-1.1057583866	 0.351594
F	 0.0521951844	-2.5269858711	-2.2869028756	-0.052891
N	-0.0051355207	-2.7395324002	-0.0627598418	-0.314993
C	-0.014255332	-2.1125192793	 1.1251418889	-0.089916
C	 0.022952893	-0.7406795034	 1.2323195503	 0.154292
F	 0.013784322	-0.1233183364	 2.409629923	-0.054168
H	 0.1391812856	 1.6372140204	-0.8343134295	 0.314581
H	-0.052551777	-2.7268872855	 2.0199678718	 0.145128
135.7362	237.8196	285.63	375.2467	395.6758	464.3681	490.4999	565.8889	566.7053	612.9003	737.0993	779.3496	802.3104	808.484	973.3315	1023.1135	1193.5633	1276.4685	1297.4819	1354.3584	1380.1732	1475.8864	1522.8732	1637.1293	1666.784	3182.2299	3756.6445
OC1=NC(F)=NC=C1F	Oc1nc(F)ncc1F	
InChI=1S/C4H2F2N2O/c5-2-1-7-4(6)8-3(2)9/h1H,(H,7,8,9)	InChI=1S/C4H2F2N2O/c5-2-1-7-4(6)8-3(2)9/h1H,(H,7,8,9)
