11
gdb 21696	3.62417	1.90342	1.24963	5.0225	55.27	-0.2699	-0.0916	0.1783	862.6367	0.071899	-430.676386	-430.669567	-430.668623	-430.707667	24.095	
N	 0.054191557	 1.3641702278	 0.1388924604	-0.587534
C	 0.0355507994	-0.0044114489	 0.0249345467	 0.29241
N	-1.0731415928	-0.7024289107	-0.0168011221	-0.158723
O	-0.6595493217	-2.0247030456	-0.0455269582	-0.13555
N	 0.6754985354	-2.1363139139	-0.0361857508	-0.104942
C	 1.1502231575	-0.9123578837	 0.0113772453	 0.208894
C	 2.5932721578	-0.6042194342	 0.0612726189	 0.095604
O	 3.4764058505	-1.4207729215	 0.0067705074	-0.234573
H	 0.8125295179	 1.8368756789	-0.3288686634	 0.269232
H	-0.8409278995	 1.8021084935	-0.0290044635	 0.276387
H	 2.8139778085	 0.4812619081	 0.1630780594	 0.078797
109.6925	177.959	217.9284	286.2777	348.6677	368.729	528.1139	598.188	633.9281	682.2552	758.7888	835.7885	908.759	963.7277	1027.2949	1084.5785	1146.2301	1252.6335	1422.6697	1467.1031	1520.9553	1612.251	1661.2808	1816.0417	2884.5184	3571.8259	3673.9671
NC1=NON=C1C=O	Nc1nonc1C=O	
InChI=1S/C3H3N3O2/c4-3-2(1-7)5-8-6-3/h1H,(H2,4,6)	InChI=1S/C3H3N3O2/c4-3-2(1-7)5-8-6-3/h1H,(H2,4,6)
