10
gdb 21843	8.39363	1.29797	1.13081	1.6404	50.67	-0.2983	-0.0563	0.2419	930.2341	0.060326	-450.603725	-450.597342	-450.596398	-450.635341	21.253	
O	-0.0113943139	 0.0092384069	 0.0500262251	-0.21623
C	-0.0361985007	 1.1851031894	-0.0737325679	 0.170269
O	 1.1251905304	 1.9310005881	 0.1248903227	-0.220723
C	 1.0738807403	 3.2629938165	 0.0869896675	 0.554437
N	 2.0839781411	 4.046156966	-0.1145767144	-0.343444
C	 1.4777925221	 5.2743083695	-0.0139870314	 0.064699
N	 0.1957677452	 5.2658842988	 0.2256754023	-0.110531
O	-0.0905237319	 3.8799098157	 0.3049138872	-0.215297
H	-0.8961710367	 1.8076296359	-0.3517883069	 0.152791
H	 2.0127943542	 6.2062004233	-0.1268943541	 0.16403
59.2809	108.5865	187.4224	333.5773	468.949	506.7219	643.2498	761.6274	836.4166	887.9291	940.9934	971.3265	1012.1851	1030.7764	1067.9744	1212.2973	1275.8108	1343.7263	1412.7417	1537.537	1641.2709	1902.3403	3075.1173	3262.4087
O=COC1=NC=NO1	O=COc1ncno1	
InChI=1S/C3H2N2O3/c6-2-7-3-4-1-5-8-3/h1-2H	InChI=1S/C3H2N2O3/c6-2-7-3-4-1-5-8-3/h1-2H
