10
gdb 23854	3.40028	2.48156	1.43458	2.6336	53.25	-0.2781	-0.0716	0.2064	748.3416	0.060814	-454.712138	-454.706232	-454.705288	-454.742534	21.463	
F	 0.0565811958	 0.0728789564	 0.1512261634	-0.009851
C	 0.0029474744	 1.3761982756	 0.0376323958	 0.340473
N	-1.1716657265	 1.8762442515	-0.0348801238	-0.140365
O	-1.2153300987	 3.27353484	-0.1568048794	-0.211692
C	-0.0573533855	 3.9569673789	-0.1870903665	 0.170871
N	 1.1293153882	 3.503168315	-0.1183243411	-0.315027
C	 1.2779468019	 2.1129637805	 0.0055857556	 0.250481
N	 2.3815617899	 1.4880831307	 0.0869018943	-0.491947
H	-0.2655550025	 5.0196232564	-0.2841048166	 0.166987
H	 3.1504967132	 2.1621022551	 0.0476831482	 0.24007
93.5529	314.0432	323.4661	398.4065	500.0087	530.469	534.0232	603.0749	745.7998	798.8734	933.543	939.8709	955.8096	982.0333	1029.4864	1161.0128	1295.3836	1387.7372	1456.9274	1667.9757	1676.5932	1723.0994	3184.9485	3458.0964
FC1=NOC=NC1=N	FC1=NO[CH]N=C1[NH]	
InChI=1S/C3H2FN3O/c4-2-3(5)6-1-8-7-2/h1,5H	InChI=1S/C3H2FN3O/c4-2-3(5)6-1-8-7-2/h1,5H
