11
gdb 20781	3.36632	2.42782	1.42288	2.4591	56.6	-0.266	-0.1125	0.1536	784.888	0.069424	-430.639417	-430.632469	-430.631524	-430.671093	24.516	
C	-0.0331139963	 1.5077814689	 0.0286752115	-0.461447
C	-0.0100604185	 0.0148094199	-0.0057857931	 0.264003
N	-0.0527040561	-0.5755512621	-1.1568903852	-0.089012
O	-0.0316158427	-1.9334444928	-1.1860437917	-0.225907
N	 0.0362876593	-2.7299411176	 0.0192789978	 0.088757
N	 0.0767086594	-2.1696057793	 1.1097726875	-0.142715
C	 0.0594035355	-0.735847401	 1.2465498296	 0.369652
O	 0.1014157128	-0.2455395834	 2.3461133032	-0.282939
H	 0.8623715408	 1.8856087086	 0.5321650973	 0.162506
H	-0.085187988	 1.9063617555	-0.9853045131	 0.154605
H	-0.8919428263	 1.8566877733	 0.6107840563	 0.162499
51.3319	159.8877	277.1759	278.8824	397.7359	474.7006	496.9407	503.633	529.2114	590.3809	730.6556	814.3569	903.6837	949.881	1053.4306	1065.4552	1119.0997	1360.576	1416.0406	1461.5896	1465.4005	1600.2103	1643.4111	1817.2234	3049.0033	3108.8295	3154.8896
CC1=NON=NC1=O	Cc1nonnc1=O	
InChI=1S/C3H3N3O2/c1-2-3(7)4-6-8-5-2/h1H3	InChI=1S/C3H3N3O2/c1-2-3(7)4-6-8-5-2/h1H3
