9
gdb 23803	4.22552	1.90258	1.31189	2.6909	48.85	-0.2956	-0.121	0.1746	786.5505	0.046973	-474.591955	-474.586021	-474.585077	-474.622367	21.32	
F	 0.0396130926	 0.0578031582	 0.0026307172	-0.028741
C	-0.0536716536	 1.3651599379	 0.0110124213	 0.426629
C	-1.227711048	 2.0138418113	 0.0306626628	-0.426306
C	-1.1971355398	 3.4616723591	 0.0382563245	 0.504089
O	-2.1228792953	 4.2172000224	 0.0542408004	-0.314126
O	 0.1032455875	 4.002204074	 0.0227141922	-0.252952
N	 1.2700821728	 3.2271355339	 0.0025107195	 0.095958
N	 1.1802033674	 1.9876253741	-0.0026975336	-0.173416
H	-2.1824630937	 1.5058889891	 0.0409556655	 0.168864
137.1047	182.0846	371.3689	434.4163	449.0491	534.0253	538.3812	714.4987	751.9125	758.9241	782.8785	893.0989	906.2141	989.7888	1179.5895	1262.0127	1356.4743	1567.9448	1695.7983	1875.9136	3237.2727
FC1=CC(=O)ON=N1	FC1=N[N]OC(=O)[CH]1	
InChI=1S/C3HFN2O2/c4-2-1-3(7)8-6-5-2/h1H	InChI=1S/C3HFN2O2/c4-2-1-3(7)8-6-5-2/h1H
