11
gdb 130680	3.18956	1.35984	0.95436	1.6814	67.16	-0.2291	-0.0928	0.1363	1082.2608	0.066523	-484.907079	-484.899633	-484.898689	-484.939397	26.607	
O	 0.2097941876	 0.0195172337	-0.0189949121	-0.37611
C	 0.0190007568	 1.2081026347	-0.0469124962	 0.465991
N	-1.2069101967	 1.8763232917	-0.0010990201	-0.407094
C	-1.1034697433	 3.267460688	 0.0774263663	 0.385079
C	 0.3537413677	 3.4658338746	 0.0314889998	 0.282611
N	 0.9856630688	 2.2117512498	-0.1336386305	-0.43679
N	 0.9466711247	 4.6108160449	-0.0162992316	 0.100131
N	 1.4474841215	 5.6351359276	-0.0563655987	-0.217567
O	-2.0007364291	 4.0708559685	 0.1461723087	-0.363678
H	-2.0860730558	 1.3847659517	 0.0211166035	 0.287022
H	 1.9134937378	 2.0087001548	 0.2052361311	 0.280405
101.6259	144.254	163.0546	288.8066	362.4543	385.9653	466.4149	480.0084	544.9136	556.8148	643.5765	689.3855	728.8491	757.9846	810.5576	988.4693	1108.2374	1283.8377	1305.2505	1342.1495	1354.3445	1493.8788	1834.3817	1877.8934	2184.3608	3638.9464	3663.7778
O=C1NC2=C(N1)N=NO2	O=C1NC(=O)[C](N1)[N][N]	
InChI=1S/C3H2N4O2/c8-3-4-1-2(5-3)9-7-6-1/h(H2,4,5,8)	InChI=1S/C3H2N4O2/c4-7-1-2(8)6-3(9)5-1/h(H2,5,6,7,8,9)
