11
gdb 129095	3.13875	1.53711	1.03181	4.5568	68.7	-0.2925	-0.1071	0.1854	1021.9159	0.065689	-447.651128	-447.644088	-447.643144	-447.683061	25.5	
N	-0.0735213973	 1.3133826692	-0.2250522183	-0.484678
C	 0.0098590375	 0.0547212898	-0.0307192948	 0.179672
C	 1.2152472595	-0.7401781199	 0.1884361812	 0.02552
N	 1.2423858542	-2.0069137686	 0.3792445439	-0.049234
O	 0.0290598497	-2.687131029	 0.3789871268	-0.214043
N	-1.1727197453	-2.0677005433	 0.1862902282	-0.106086
C	-1.1912754906	-0.7883515541	-0.0056428622	 0.233475
C	-2.4872474248	-0.2041126996	-0.2011359878	 0.319267
N	-3.5283720809	 0.2716383086	-0.3591243134	-0.302119
H	 0.8495903391	 1.7536290108	-0.213376123	 0.237777
H	 2.189528909	-0.2557947238	 0.1978316492	 0.16045
81.1776	152.9489	205.4918	366.2514	399.9213	428.9854	452.739	560.8492	571.5302	607.9383	712.9278	778.199	787.4523	886.9415	893.7712	959.2986	973.7133	1115.1282	1230.4159	1320.0325	1427.655	1587.6034	1645.1694	1710.0569	2363.7048	3163.724	3450.6524
N=C1C=NON=C1C#N	[NH][C]1C=NON=C1C#N	
InChI=1S/C4H2N4O/c5-1-4-3(6)2-7-9-8-4/h2,6H	InChI=1S/C4H2N4O/c5-1-4-3(6)2-7-9-8-4/h2,6H
