10
gdb 128870	10.27879	0.68839	0.64518	5.362	76.84	-0.291	-0.0884	0.2027	1537.8268	0.056318	-426.611455	-426.604531	-426.603587	-426.643745	23.817	
N	 0.0764232389	-3.6926585714	-0.0188878044	-0.32065
C	 0.0472668018	-2.5313886852	-0.0119631095	 0.183339
C	 0.0104332949	-1.1678895327	-0.0038361232	 0.273111
C	-0.0313946982	 0.0393120424	 0.0033906923	 0.033895
C	-0.0515289151	 1.4492337224	 0.0114780254	 0.167979
N	-1.171557868	 2.1782407243	 0.0301972544	-0.227873
N	-0.6701398539	 3.3972525802	 0.0303906416	-0.102198
N	 0.658288546	 3.4619071072	 0.0133868012	-0.083146
N	 1.0728848599	 2.2291411967	 0.0011364869	-0.238942
H	-1.2500143163	 4.2248858761	 0.0425661154	 0.314484
79.1317	88.6149	237.0733	240.0171	441.31	481.2009	511.1121	588.6313	605.1609	614.7798	732.6123	793.0105	979.2175	1040.3616	1081.5422	1101.8603	1220.1668	1263.995	1317.2996	1477.3658	1519.5825	2274.5805	2397.4731	3634.788
N#CC#CC1=NNN=N1	N#CC#Cc1n[nH]nn1	
InChI=1S/C4HN5/c5-3-1-2-4-6-8-9-7-4/h(H,6,7,8,9)	InChI=1S/C4HN5/c5-3-1-2-4-6-8-9-7-4/h(H,6,7,8,9)
