11
gdb 132181	3.28188	1.38959	0.97624	2.7713	57.4	-0.2559	-0.0457	0.2102	1036.3	0.065531	-537.949523	-537.942805	-537.941861	-537.981089	24.832	
F	 0.0507473478	 0.0914605943	 0.1388946064	-0.032394
C	-0.0724470309	 1.386598561	 0.021843986	 0.406909
N	-1.1874057153	 1.9600070421	 0.1567051883	-0.412891
C	-1.2567198666	 3.3649205946	 0.0186552314	 0.265548
N	-2.3219093862	 4.0488205632	 0.1330274995	-0.513342
C	 0.0304977467	 4.0030559299	-0.2759383726	 0.191
F	 0.0645890614	 5.3155697349	-0.4222240376	-0.036762
C	 1.1485289575	 3.2824100177	-0.3955276499	-0.078448
O	 1.1296355691	 1.9118432721	-0.2456762069	-0.192495
H	-3.1037783918	 3.4231871095	 0.3374976299	 0.234497
H	 2.1333393284	 3.6677076307	-0.6099068246	 0.168378
101.7269	196.2064	307.3349	371.6077	381.238	404.9759	468.1691	528.2774	616.074	726.6355	763.1511	771.9474	791.8639	858.2381	920.3082	963.4261	1105.3907	1200.684	1272.914	1291.2432	1368.3296	1434.6794	1700.8429	1733.7816	1749.4348	3265.0083	3471.3753
FC1=NC(=N)C(F)=CO1	FC1=NC(=C(F)CO1)[NH]	
InChI=1S/C4H2F2N2O/c5-2-1-9-4(6)8-3(2)7/h1,7H	InChI=1S/C4H3F2N2O/c5-2-1-9-4(6)8-3(2)7/h7H,1H2
