11
gdb 133444	3.2279	1.47469	1.01224	1.201	57.53	-0.2781	-0.0872	0.191	1024.108	0.065323	-529.963302	-529.956244	-529.9553	-529.995356	25.804	
F	 0.0094563387	 0.1277697714	-0.4119337635	-0.015709
C	-0.0275602352	 1.3884916508	-0.0558876825	 0.241376
N	-1.1682911729	 1.9038210047	 0.1605692166	-0.104531
O	-1.1958443502	 3.2455363386	 0.5395465213	-0.275067
C	-0.0580625782	 4.0139717826	 0.6844224738	 0.51449
N	-0.0990924685	 5.2236992338	 1.0276160303	-0.542016
N	 1.1452568735	 3.3740404551	 0.4288643721	-0.403564
C	 1.299036424	 2.06341867	 0.0500307922	 0.367307
O	 2.3550305324	 1.5251427255	-0.1662412222	-0.326828
H	-1.0550369286	 5.5383333251	 1.176111651	 0.24997
H	 1.977504855	 3.9398956324	 0.5362254909	 0.294572
78.5954	131.8353	311.6069	327.208	377.7614	403.6202	459.0993	541.6272	617.9794	657.9635	698.4536	706.3819	784.1202	807.2238	810.3491	913.0281	1004.2362	1097.8465	1276.3995	1344.7178	1412.0434	1450.2399	1694.7536	1785.8862	1837.3699	3540.8661	3602.1221
FC1=NOC(=N)NC1=O	FC1=NO[C]([NH])NC1=O	
InChI=1S/C3H2FN3O2/c4-1-2(8)6-3(5)9-7-1/h(H2,5,6,8)	InChI=1S/C3H2FN3O2/c4-1-2(8)6-3(5)9-7-1/h(H2,5,6,8)
