11
gdb 5351	6.06237	1.59232	1.26109	1.9964	64.92	-0.2791	-0.0806	0.1986	857.7698	0.07545	-356.505631	-356.499726	-356.498782	-356.535847	21.266	
N	 0.0181357996	-1.1613955357	-0.0031370516	-0.314246
C	 0.0020224163	-0.0040861287	 0.0031727844	 0.219256
C	-0.0172836757	 1.4218434574	 0.0107683493	 0.086868
C	-1.2172274758	 2.1440222147	 0.0304137874	-0.02364
N	-1.2405713383	 3.4729352504	 0.0375765065	-0.238996
C	-0.0533424592	 4.0838126496	 0.0249696873	 0.094851
N	 1.1499950982	 3.5054888802	 0.0060281757	-0.238992
C	 1.1626541538	 2.1764294333	-0.0009939082	-0.023645
H	-2.1728256546	 1.6266218199	 0.0404217996	 0.148956
H	-0.0680632204	 5.1704435649	 0.030785954	 0.140625
H	 2.1319157862	 1.6852409441	-0.0163882845	 0.148964
148.4635	162.531	341.1095	405.5495	492.3133	558.0133	586.1394	640.2678	743.7422	808.7566	952.6848	1000.2004	1029.5575	1055.6428	1137.9671	1218.1692	1233.9117	1247.1435	1373.5996	1453.7287	1454.1189	1577.4984	1621.2102	2348.0661	3173.7956	3174.4212	3180.1781
N#CC1=CN=CN=C1	N#Cc1cncnc1	
InChI=1S/C5H3N3/c6-1-5-2-7-4-8-3-5/h2-4H	InChI=1S/C5H3N3/c6-1-5-2-7-4-8-3-5/h2-4H
