11
gdb 23732	5.68505	1.55054	1.21827	3.1891	56.7	-0.24	-0.0717	0.1683	861.3201	0.072064	-442.549352	-442.543333	-442.542389	-442.579677	22.615	
F	-0.0053287815	-0.0066383818	 0.0032445209	-0.071733
C	-0.0242053367	 1.3282060267	 0.0104921718	 0.173751
C	-1.1899789795	 2.003107919	 0.0294705536	-0.023943
O	-1.2283651632	 3.3457359523	 0.0370133597	-0.215058
C	-0.0660775181	 4.1447617227	 0.0254448275	 0.437459
O	-0.2096312519	 5.3358435795	 0.0353162245	-0.337101
C	 1.1812528503	 3.4006118436	 0.0059473476	-0.246594
C	 1.2052226945	 2.0466131683	-0.0016413948	-0.154091
H	-2.1674885643	 1.5379907413	 0.039953003	 0.156839
H	 2.0844426549	 3.9966308276	-0.0021966959	 0.140609
H	 2.1369652254	 1.4908637407	-0.016535968	 0.139862
114.3957	330.4411	357.6045	388.7377	440.703	504.026	509.8216	627.1841	741.3726	763.7249	779.1086	850.2288	885.6128	952.6382	1001.8162	1090.2059	1160.1423	1254.5878	1283.7211	1341.9555	1470.9533	1586.5771	1703.6391	1847.9952	3194.4092	3222.7766	3227.9085
FC1=COC(=O)C=C1	Fc1coc(=O)cc1	
InChI=1S/C5H3FO2/c6-4-1-2-5(7)8-3-4/h1-3H	InChI=1S/C5H3FO2/c6-4-1-2-5(7)8-3-4/h1-3H
