11
gdb 21355	5.52632	2.23301	1.59038	5.6282	59.48	-0.2225	-0.0476	0.1748	705.1751	0.07459	-393.557623	-393.552206	-393.551262	-393.586874	21.318	
N	 0.004900654	 1.3380135867	 0.0093135932	-0.221927
C	 1.2910515472	 1.8685315119	 0.0000758243	-0.235883
C	 2.1201850313	 0.7735100688	-0.0139413243	 0.343676
O	 3.4051600142	 0.428627874	-0.0280935617	-0.283779
N	 3.3616348926	-1.0943789232	-0.0368174021	-0.02447
N	 2.1799814278	-1.4668087769	-0.0264511779	-0.20017
C	 1.3197271077	-0.3933705153	-0.0124673855	 0.233318
C	-0.0145288934	-0.0268188284	 0.002570855	-0.181199
H	-0.8258834747	 1.9058309879	 0.0202954319	 0.276402
H	 1.4622183267	 2.9297526698	 0.0042562679	 0.143746
H	-0.9334357433	-0.5863236153	 0.008638579	 0.150286
254.3011	349.0175	389.4708	530.9956	534.9578	613.0585	630.7253	655.7424	705.5953	730.526	750.1317	768.4013	937.5354	976.8003	1058.6444	1144.4445	1218.0501	1264.8043	1336.609	1435.3761	1472.9815	1513.024	1563.2092	1649.9679	3290.8165	3295.6624	3670.2072
N1C=C2ON=NC2=C1	[nH]1cc2onnc2c1	
InChI=1S/C4H3N3O/c1-3-4(2-5-1)8-7-6-3/h1-2,5H	InChI=1S/C4H3N3O/c1-3-4(2-5-1)8-7-6-3/h1-2,5H
