11
gdb 21406	4.11162	2.07036	1.37699	1.0489	57.31	-0.273	-0.0862	0.1867	793.8778	0.074512	-426.909328	-426.903066	-426.902122	-426.940189	22.82	
N	-0.0710759872	 1.3175183389	 0.0086242751	-0.512218
C	-0.0141161148	 0.0514800674	 0.0011501305	 0.469587
N	-1.1866386521	-0.7037192892	 0.0034668844	-0.399289
C	-1.2282441756	-2.0725473032	-0.0039072921	 0.525277
O	-2.2228854609	-2.7532403518	-0.0020405019	-0.367654
N	 0.063476931	-2.6096468801	-0.0140443109	-0.297604
N	 1.2309910564	-1.9231263755	-0.016809117	-0.009898
N	 1.2175546468	-0.667969045	-0.0097741079	-0.237309
H	 0.8761638877	 1.694160855	 0.0054479426	 0.246258
H	-2.0677998042	-0.2078250144	 0.0111944017	 0.287744
H	 0.1610139428	-3.613655552	-0.0201421646	 0.295108
84.5251	143.2344	377.8564	406.9004	507.4807	551.514	572.1515	587.4436	666.0661	751.7915	758.8502	768.4671	881.7809	948.2205	1031.5164	1067.3221	1133.3455	1278.3537	1377.4922	1410.2825	1436.1196	1596.6732	1741.746	1860.9521	3510.453	3610.1908	3646.0407
N=C1NC(=O)NN=N1	[NH]c1[nH]c(=O)[nH]nn1	
InChI=1S/C2H3N5O/c3-1-4-2(8)6-7-5-1/h(H3,3,4,5,6,8)	InChI=1S/C2H6N5O/c3-1-4-2(8)6-7-5-1/h1,3,5,7H,(H2,4,6,8)
