9
gdb 21326	6.50189	1.66798	1.32744	3.0601	56.88	-0.2885	-0.1329	0.1556	799.6545	0.049541	-388.530284	-388.524364	-388.52342	-388.560637	20.332	
N	 0.0303773429	-1.1327038415	-0.0036986767	-0.291517
C	-0.0033258102	 0.0219296845	 0.0028568655	 0.313072
C	-0.0478739749	 1.4632483471	 0.0110589171	 0.309183
N	-1.2405093853	 2.0532252462	 0.0300935654	-0.24133
C	-1.1509052354	 3.3776943336	 0.0360552764	 0.115441
N	-0.0122626377	 4.0803134107	 0.0247561401	-0.144314
N	 1.1285222751	 3.4128044497	 0.0060302847	-0.038634
N	 1.1372318742	 2.0931010137	-0.0012089574	-0.192923
H	-2.0726206787	 3.952093336	 0.0513730348	 0.17102
119.2811	174.2217	292.1555	324.8481	505.6678	568.6673	611.8332	704.4905	841.9008	866.1659	944.551	1006.3448	1022.9424	1151.3708	1261.3695	1312.2951	1408.6507	1518.143	1550.972	2368.3234	3191.5792
N#CC1=NC=NN=N1	N#Cc1ncnnn1	
InChI=1S/C3HN5/c4-1-3-5-2-6-8-7-3/h2H	InChI=1S/C3HN5/c4-1-3-5-2-6-8-7-3/h2H
