11
gdb 21889	7.60191	1.29735	1.10822	2.8889	60.96	-0.2494	-0.0472	0.2022	952.4084	0.074413	-393.615585	-393.60908	-393.608136	-393.646247	23.874	
O	 0.0734997261	 1.3378552406	 0.0229169793	-0.423951
C	 0.0664441488	-0.0045960046	 0.0712192333	 0.454164
N	 0.0913262672	-0.7484299792	-1.0310020645	-0.30507
N	 0.0742451057	-2.0157574794	-0.5798826845	-0.279692
C	 0.0394357497	-2.0850780348	 0.7789130711	 0.320247
C	 0.033064977	-0.7797872857	 1.2463092869	-0.414978
C	 0.0165371888	-3.3201995337	 1.4688429249	 0.234778
N	-0.0018435918	-4.3399217652	 2.0172599438	-0.331941
H	 0.0983617759	 1.5966255315	-0.9072203279	 0.310873
H	 0.0875970428	-2.7805465748	-1.2333828669	 0.293865
H	 0.0083606398	-0.4486389947	 2.2696935844	 0.141704
138.4793	155.5965	333.1364	406.843	410.9422	425.8935	535.4509	538.0245	576.8951	691.7053	709.8565	754.6191	819.6857	1006.2492	1040.8768	1156.6663	1195.6	1238.2621	1318.5973	1430.3157	1492.3225	1569.0944	1602.8817	2349.5652	3294.2938	3677.501	3794.1573
OC1=NNC(=C1)C#N	Oc1n[nH]c(c1)C#N	
InChI=1S/C4H3N3O/c5-2-3-1-4(8)7-6-3/h1H,(H2,6,7,8)	InChI=1S/C4H3N3O/c5-2-3-1-4(8)7-6-3/h1H,(H2,6,7,8)
