10
gdb 129154	3.1539	1.55282	1.04052	3.1578	66.21	-0.2975	-0.1254	0.1721	999.9334	0.052252	-463.683626	-463.676236	-463.675291	-463.716557	25.832	
N	-0.0469261331	 1.3157148689	-0.188926897	-0.456691
C	-0.03409206	 0.0641013916	-0.004873445	 0.322013
N	 1.1979617433	-0.6433265793	 0.2300338695	-0.109565
N	 1.2779295412	-1.8370115049	 0.4132702063	 0.065929
O	-0.0130354739	-2.6457122368	 0.3942372211	-0.231289
N	-1.1897499893	-2.0581467604	 0.1828439154	-0.084807
C	-1.2240064231	-0.7736936874	-0.008935174	 0.202151
C	-2.5132135663	-0.192676503	-0.2305857503	 0.334617
N	-3.5489825426	 0.2877059197	-0.4107130035	-0.299531
H	 0.9024813738	 1.6947959617	-0.1431419727	 0.257173
31.1371	151.9198	196.7578	333.0773	383.0704	390.2501	414.3473	462.968	558.5458	574.2794	589.6482	729.9371	804.264	885.5232	939.6687	1000.0798	1075.9953	1216.7123	1383.1804	1556.5026	1697.028	1739.0722	2361.2009	3461.0135
N=C1N=NON=C1C#N	[NH]C1=N[N]ON=C1C#N	
InChI=1S/C3HN5O/c4-1-2-3(5)6-8-9-7-2/h5H	InChI=1S/C3HN5O/c4-1-2-3(5)6-8-9-7-2/h5H
