11
gdb 132717	6.03786	1.02362	0.87524	2.9366	67.39	-0.2927	-0.0907	0.202	1155.4125	0.067165	-455.749659	-455.743049	-455.742105	-455.781111	24.056	
F	 0.0075170584	 0.0511729107	 0.0034908574	-0.045904
C	-0.0096229777	 1.3704280916	 0.0104789539	 0.336568
C	-1.2437723024	 2.0334222384	 0.0302594664	-0.138167
N	-1.293654248	 3.355045739	 0.0376950345	-0.271117
C	-0.1174505266	 4.0050383913	 0.0254151515	 0.201935
C	 1.1002905015	 3.3195608473	 0.0057424951	-0.045758
N	 1.148096295	 1.9863667036	-0.0017256836	-0.280586
C	-0.1374020212	 5.4403489586	 0.033035071	 0.247037
N	-0.113355134	 6.5966089753	 0.0386402366	-0.312346
H	-2.1763304594	 1.4781111805	 0.0397947619	 0.151708
H	 2.0443591045	 3.8551382938	-0.0040372649	 0.156632
98.7411	156.7198	265.6014	412.2384	435.1052	457.9208	502.2426	565.369	601.5639	662.5513	725.4873	808.3218	893.402	937.9252	971.5159	1036.5445	1240.6925	1264.3598	1293.3767	1336.2185	1380.1427	1506.7017	1591.2263	1606.9591	2354.6688	3186.5894	3189.7323
FC1=CN=C(C=N1)C#N	Fc1cnc(cn1)C#N	
InChI=1S/C5H2FN3/c6-5-3-8-4(1-7)2-9-5/h2-3H	InChI=1S/C5H2FN3/c6-5-3-8-4(1-7)2-9-5/h2-3H
