11
gdb 23718	5.87275	1.4784	1.18108	2.216	55.08	-0.2567	-0.0437	0.213	868.277	0.072602	-446.709135	-446.703401	-446.702457	-446.739158	21.795	
F	-0.0086663947	 0.0259278057	 0.0036835544	-0.075176
C	-0.0109224977	 1.3604073695	 0.010513331	 0.248728
C	-1.2157658041	 2.0465385039	 0.0300331539	-0.104624
N	-1.2705753954	 3.3816993303	 0.0375575049	-0.297573
C	-0.1319465688	 4.0349072776	 0.0257340218	 0.344761
F	-0.2131204455	 5.3626306851	 0.0336901012	-0.072114
C	 1.1313853396	 3.4474645256	 0.0059914491	-0.248973
C	 1.1888827121	 2.0612659465	-0.0018461498	-0.191173
H	-2.154407151	 1.5004053176	 0.0397207978	 0.134001
H	 2.0228299491	 4.0616334261	-0.0026892816	 0.128849
H	 2.1319851163	 1.5278402023	-0.0170864827	 0.133293
155.007	353.663	386.3458	449.9085	450.9666	494.2622	541.0588	646.209	765.8197	768.6901	856.6748	888.8742	945.3986	971.4358	1029.4429	1126.3092	1274.5065	1291.0013	1311.7748	1334.7448	1418.1544	1524.8917	1632.1192	1646.838	3178.7172	3205.5033	3220.1046
FC1=CN=C(F)C=C1	Fc1cnc(F)cc1	
InChI=1S/C5H3F2N/c6-4-1-2-5(7)8-3-4/h1-3H	InChI=1S/C5H3F2N/c6-4-1-2-5(7)8-3-4/h1-3H
