11
gdb 130739	5.5196	1.37079	1.09808	2.7423	57.19	-0.2413	-0.0041	0.2372	964.5842	0.068611	-488.706636	-488.700579	-488.699634	-488.737236	22.906	
O	-0.0434821381	 0.0119854301	 0.0035806696	-0.329614
C	-0.0139494432	 1.1927957238	 0.0097318938	 0.456839
O	-1.1672990445	 2.0067729182	 0.0300890544	-0.253191
C	-0.6805850925	 3.2735344569	 0.0304268786	 0.42257
C	 0.6720035362	 3.2926143534	 0.0119543465	 0.207707
O	 1.1133713305	 1.9790961912	-0.0013922255	-0.252061
C	 1.0424554664	 4.6445170093	 0.0144267287	-0.133695
N	-0.0644921983	 5.3986855296	 0.0338433782	-0.217448
N	-1.126718851	 4.5375170508	 0.0436356013	-0.339671
H	 2.0123514378	 5.1138637192	 0.0037244904	 0.14297
H	-2.0626499732	 4.9036864175	 0.058488744	 0.295595
123.5371	281.6054	332.1217	359.8192	442.3516	589.3464	615.4924	657.6467	719.4466	759.254	780.5809	816.0352	864.9965	891.4983	970.4886	984.9791	1056.7302	1234.4831	1236.7273	1330.096	1409.4388	1487.6825	1593.4461	1652.9222	1962.6128	3275.5091	3687.754
O=C1OC2=C(O1)C=NN2	O=c1oc2c(o1)cn[nH]2	
InChI=1S/C4H2N2O3/c7-4-8-2-1-5-6-3(2)9-4/h1H,(H,5,6)	InChI=1S/C4H2N2O3/c7-4-8-2-1-5-6-3(2)9-4/h1H,(H,5,6)
