11
gdb 132226	2.06315	1.99804	1.01504	4.8478	56.9	-0.2659	-0.0338	0.2321	1021.7068	0.066229	-530.003466	-529.99661	-529.995666	-530.035238	25.202	
O	 0.0776731834	 1.2713959495	 0.0072615494	-0.376913
C	-0.0538047206	-0.0449786038	 0.0010906501	 0.504127
N	-1.1635833721	-0.6353547005	 0.0038173847	-0.311265
C	-1.1736892618	-2.0412782745	-0.003410519	 0.382181
N	-2.2790613283	-2.6608666602	-0.0012640175	-0.489437
N	 0.0834080693	-2.7205432825	-0.013538283	-0.392701
C	 1.1152025632	-2.0127743466	-0.0152626703	 0.404991
F	 2.3235841827	-2.503248051	-0.024025272	-0.0297
O	 1.1970659386	-0.658516518	-0.0086477589	-0.251019
H	 1.0166750851	 1.5005626387	 0.0036386074	 0.32556
H	-2.0936721795	-3.6642414911	-0.0075983609	 0.234177
98.9377	189.4704	216.8492	358.3786	388.6066	423.7517	541.5377	548.3064	624.1717	665.1003	703.3512	708.4743	778.6441	908.7426	919.0428	957.6514	1022.746	1133.525	1250.6951	1269.899	1354.3233	1399.614	1730.2197	1739.9337	1850.8236	3495.25	3793.2314
OC1=NC(=N)N=C(F)O1	OC1=N[C@@H]([NH])N=C(F)O1	
InChI=1S/C3H2FN3O2/c4-1-6-2(5)7-3(8)9-1/h(H2,5,7,8)	InChI=1S/C3H3FN3O2/c4-1-6-2(5)7-3(8)9-1/h2,5H,(H,7,8)/t2-/m0/s1
