10
gdb 21976	5.60737	1.73209	1.32332	3.8306	53.55	-0.3081	-0.1126	0.1955	809.6986	0.060579	-450.492756	-450.486813	-450.485869	-450.523509	20.768	
O	-0.0525578489	 0.002427087	 0.0042111308	-0.353062
N	-0.0321665614	 1.2270207258	 0.0082697596	 0.357455
O	 0.9538562026	 1.9436926918	 0.0032768382	-0.332471
C	-1.3279717738	 1.8696743492	 0.0190768618	 0.535898
C	-2.5740306484	 1.3318791016	 0.0262372112	-0.305939
C	-3.3917993021	 2.4901882029	 0.0352904573	 0.046349
N	-2.6840687955	 3.5984853514	 0.0333033972	-0.105067
O	-1.3561124244	 3.2015658078	 0.0230757131	-0.17164
H	-2.843606979	 0.2908478751	 0.0251543871	 0.169013
H	-4.4700724692	 2.5593108174	 0.0430204037	 0.159463
74.7895	206.572	226.2183	433.4494	528.8491	612.3592	645.8407	780.2588	831.744	855.0201	930.2354	932.8353	942.181	1008.6445	1039.0313	1196.2704	1262.975	1384.2216	1392.9898	1472.3856	1619.7516	1652.7619	3254.7473	3306.9473
O=N(=O)C1=CC=NO1	O=N(=O)c1ccno1	
InChI=1S/C3H2N2O3/c6-5(7)3-1-2-4-8-3/h1-2H	InChI=1S/C3H2N2O3/c6-5(7)3-1-2-4-8-3/h1-2H
