11
gdb 130808	8.14619	0.66218	0.6124	1.2545	76.19	-0.2763	-0.0915	0.1847	1629.3127	0.064173	-451.494202	-451.486478	-451.485533	-451.527765	25.986	
O	-0.0965151646	-0.0176675109	-0.0010056945	-0.225956
C	-0.0101054558	 1.1893027008	 0.0078155885	 0.00213
C	 1.2362195486	 1.9086036318	-0.000741967	 0.157608
C	 2.2731627133	 2.5320628753	-0.0076296326	 0.008784
C	 3.4841127051	 3.2383876963	-0.015226632	 0.122232
C	 4.7769022108	 2.7824913812	-0.0335568397	-0.056861
O	 5.6100459011	 3.7964545957	-0.0347315456	-0.154028
N	 4.7629912132	 5.0035811476	-0.0148534168	 0.001914
N	 3.5799659775	 4.6272805867	-0.0049607951	-0.16042
H	-0.905990227	 1.84100226	 0.0234540097	 0.111807
H	 5.1852931179	 1.7843576254	-0.046515605	 0.192791
69.7209	72.9502	117.5993	208.8369	267.3794	415.4763	451.8869	517.0451	520.716	635.1506	707.3696	718.4666	888.6173	951.8923	976.5394	1017.2088	1050.5762	1166.9515	1268.407	1339.7567	1418.6978	1519.7109	1577.1748	1759.3519	2317.3963	2934.0271	3279.8871
O=CC#CC1=CON=N1	O=CC#Cc1conn1	
InChI=1S/C5H2N2O2/c8-3-1-2-5-4-9-7-6-5/h3-4H	InChI=1S/C5H2N2O2/c8-3-1-2-5-4-9-7-6-5/h3-4H
