9
gdb 8978	7.71298	0.81886	0.74027	1.4423	65.82	-0.2888	-0.1493	0.1394	1339.287	0.046213	-396.180018	-396.172333	-396.171388	-396.213322	24.614	
O	-0.1097794577	 0.0244602864	 0.000850922	-0.184609
C	-0.0238368945	 1.2172265579	 0.0066008896	 0.077312
C	 1.3576737271	 1.9213707504	-0.0007431583	 0.138759
O	 2.3914975477	 1.302093462	-0.0124328839	-0.219911
C	 1.3016449119	 3.3719529369	 0.0075259838	 0.099488
C	 1.2423202466	 4.5809843482	 0.0145176411	 0.047241
C	 1.1724581436	 5.9437899734	 0.0224180277	 0.231758
N	 1.1079920401	 7.1033300252	 0.0291807945	-0.306277
H	-0.9021816449	 1.8961929796	 0.0173610835	 0.116239
67.4769	67.9387	126.2861	211.4015	283.0385	309.1833	423.6851	529.5487	556.1681	585.2769	618.4898	834.8005	929.3021	1003.9322	1172.904	1398.5365	1770.7162	1844.7739	2248.7558	2382.4168	2920.4495
O=CC(=O)C#CC#N	O=CC(=O)C#CC#N	
InChI=1S/C5HNO2/c6-3-1-2-5(8)4-7/h4H	InChI=1S/C5HNO2/c6-3-1-2-5(8)4-7/h4H
