11
gdb 21567	2.24651	1.29654	0.84965	4.4038	53.57	-0.2537	-0.0484	0.2053	1222.6097	0.066356	-430.798123	-430.787697	-430.786753	-430.839147	30.577	
N	-0.0466199445	 1.4914391991	 0.1431469913	-0.537864
C	-0.2124476808	 0.1641236141	-0.167170641	 0.449294
C	-1.5757842345	-0.3513745	 0.0800633205	-0.543591
C	-1.8385174461	-1.6181311853	-0.1927788133	 0.545352
O	-2.0830701215	-2.7204954208	-0.4335881088	-0.189741
N	 1.3193204498	-3.3949603699	 0.3969079883	-0.000135
N	 2.3945041671	-3.3881883846	 0.1717112968	-0.005539
O	 0.7002714841	-0.5282103058	-0.5828315303	-0.383456
H	 0.8225203132	 1.9055086141	-0.1541762485	 0.26455
H	-0.8377878258	 2.104038185	 0.2455709398	 0.257117
H	-2.379993091	 0.245208384	 0.4913629152	 0.144013
11.9293	16.0663	33.5072	51.3562	82.4795	98.1766	139.1162	295.995	401.0845	465.7414	489.7807	571.2461	582.6975	681.9916	760.8278	908.4256	1089.1192	1132.5136	1284.1937	1439.6972	1619.0842	1762.6582	2247.2063	2432.7236	3208.7457	3595.6118	3724.9176
NC1=CC(=O)N=NO1	NC(=O)[CH][C][O].N#N	
InChI=1S/C3H3N3O2/c4-2-1-3(7)5-6-8-2/h1H,4H2	InChI=1S/C3H3NO2.N2/c4-3(6)1-2-5;1-2/h1H,(H2,4,6);
