10
gdb 133401	2.40537	1.88603	1.05714	0.149	56.37	-0.2726	-0.111	0.1616	964.1465	0.051185	-553.92574	-553.918747	-553.917803	-553.957634	25.222	
F	 0.0147760499	 0.0546297196	 0.0860836447	-0.024344
C	-0.0558467262	 1.3664878418	 0.0825990077	 0.255747
C	-1.2125136778	 2.0417147833	-0.0321414195	 0.048022
F	-2.3711712339	 1.4427493796	-0.1506230503	-0.000363
C	-1.182229914	 3.4960179036	-0.0250147163	 0.360206
N	-2.2191664276	 4.2076812031	-0.1275831757	-0.513251
O	 0.0925044196	 4.0294628614	 0.1050002997	-0.284529
N	 1.2770518028	 3.2308242245	 0.2222055904	 0.061618
N	 1.1594649564	 2.0023366068	 0.206925671	-0.149983
H	-1.9929928192	 5.2020830662	-0.1020031017	 0.246877
102.0652	145.2868	276.7078	306.6784	317.7715	487.894	506.2514	526.1818	530.5307	663.5612	667.2039	739.3135	763.9266	856.936	903.6179	996.7399	1122.0302	1233.909	1316.5189	1418.2323	1596.3433	1733.1202	1754.3283	3502.2923
FC1=C(F)C(=N)ON=N1	FC1=N[N]OC(=C1F)[NH]	
InChI=1S/C3HF2N3O/c4-1-2(5)7-8-9-3(1)6/h6H	InChI=1S/C3HF2N3O/c4-1-2(5)7-8-9-3(1)6/h6H
