11
gdb 123305	7.05821	0.91209	0.80771	5.2161	75.85	-0.2776	-0.0799	0.1977	1276.3016	0.065564	-414.375656	-414.368381	-414.367437	-414.407695	26.292	
C	 0.1122434877	-1.1860410255	-0.0053489537	-0.351214
C	 0.0114113192	 0.0123625232	 0.0025859418	 0.231611
C	-0.1137992909	 1.4127223212	 0.011976201	 0.313856
C	-1.1931553922	 2.2481765542	 0.0315064791	-0.430942
C	-0.6071415793	 3.5411962201	 0.0304148348	 0.280672
N	 0.7140430411	 3.486459891	 0.0119561169	-0.161614
O	 1.0252633429	 2.1543078729	 0.0003543251	-0.192846
C	-1.2794243618	 4.7976681098	 0.0465611396	 0.244961
N	-1.8632351408	 5.7951201034	 0.0600799813	-0.312527
H	 0.2030620359	-2.2450653457	-0.0123795463	 0.216849
H	-2.2367822518	 1.9875347755	 0.0445149204	 0.161194
106.6159	118.8767	203.138	218.7114	424.8155	482.5985	507.3232	524.7799	585.5366	632.5837	674.3003	697.7749	702.2889	722.0345	850.2797	989.1528	1016.483	1043.8122	1146.074	1237.4162	1422.3422	1462.6251	1598.5232	2245.6275	2369.1691	3299.8804	3496.5904
C#CC1=CC(=NO1)C#N	C#Cc1cc(no1)C#N	
InChI=1S/C6H2N2O/c1-2-6-3-5(4-7)8-9-6/h1,3H	InChI=1S/C6H2N2O/c1-2-6-3-5(4-7)8-9-6/h1,3H
