11
gdb 23846	5.65607	1.61098	1.25385	2.5569	57.76	-0.2497	-0.0863	0.1634	848.3836	0.071773	-438.660349	-438.6542	-438.653255	-438.69089	22.919	
F	 0.0224083342	 0.1059198202	-0.3727995698	-0.052781
C	-0.019270304	 1.3852594358	-0.0325481716	 0.351806
N	-1.1834909197	 1.8795340294	 0.1459974542	-0.12908
O	-1.2253886414	 3.2260766399	 0.504596482	-0.289273
C	-0.0891239188	 4.0126266495	 0.6666920437	 0.417866
N	-0.1934052602	 5.2337325104	 0.9945022469	-0.520145
C	 1.1929377372	 3.3660107908	 0.4430187403	-0.103563
C	 1.240939363	 2.0715066324	 0.0980287528	-0.212942
H	-1.1729821397	 5.5010932812	 1.1053067257	 0.235881
H	 2.0723832048	 3.9840060381	 0.5709495233	 0.15537
H	 2.1598057147	 1.5281263122	-0.0833570173	 0.146861
90.2884	293.6399	351.7177	362.4619	462.3739	476.6613	536.9541	620.6552	730.6874	782.061	798.3427	838.4778	878.1346	934.4063	1013.6371	1036.6409	1085.711	1154.5125	1293.8571	1330.1325	1451.5403	1632.6344	1685.8346	1735.5699	3213.6031	3232.7377	3481.5458
FC1=NOC(=N)C=C1	FC1=NOC(=C[CH]1)[NH]	
InChI=1S/C4H3FN2O/c5-3-1-2-4(6)8-7-3/h1-2,6H	InChI=1S/C4H3FN2O/c5-3-1-2-4(6)8-7-3/h1-2,6H
