11
gdb 21492	5.27601	1.67201	1.27045	2.1111	54.66	-0.2601	-0.0909	0.1692	852.5959	0.072729	-426.847783	-426.841125	-426.840181	-426.878966	23.915	
N	-0.0435982127	 1.3389887049	 0.1291430724	-0.53046
C	 0.0571122898	-0.0223463972	 0.0233573542	 0.306386
N	 1.1817999045	-0.6231157157	-0.0368928123	-0.512363
C	-1.2471696261	-0.7267293628	 0.0242760457	 0.394385
N	-2.4208731846	-0.1608594272	 0.0442365085	-0.15854
O	-3.2998322181	-1.1818710121	 0.017611338	-0.136015
N	-2.5851503537	-2.3863049874	-0.0167102691	 0.054298
N	-1.3642066509	-2.1051762628	-0.0134018741	-0.206324
H	 0.8060661347	 1.8524282229	-0.0448722578	 0.269246
H	-0.9096321146	 1.7849409956	-0.1240572405	 0.275413
H	 1.0521450917	-1.6327641382	-0.0526582751	 0.243974
75.3747	201.729	212.0395	353.4877	405.7559	478.9014	511.7333	644.4488	657.7167	668.33	681.5787	799.3398	868.565	974.2933	1056.8468	1088.9459	1121.8356	1164.4446	1273.676	1418.6844	1515.5825	1567.9442	1624.5767	1724.8164	3518.3537	3595.3081	3719.9759
NC(=N)C1=NON=N1	NC(=N)c1nonn1	
InChI=1S/C2H3N5O/c3-1(4)2-5-7-8-6-2/h(H3,3,4)	InChI=1S/C2H3N5O/c3-1(4)2-5-7-8-6-2/h(H3,3,4)
