11
gdb 47277	2.51021	1.82329	1.13483	3.9637	52.41	-0.2846	-0.1363	0.1482	963.0814	0.065198	-529.683667	-529.676417	-529.675473	-529.716131	25.353	
O	-0.0530488159	 0.2718313464	 0.8739899559	-0.270606
C	-0.0589563098	 1.2433767077	 0.1868655722	 0.378177
O	-1.2077526951	 1.8974090581	-0.1377964117	-0.209545
C	-1.1079165625	 2.8825606087	-1.1518429171	-0.00719
O	-0.144477523	 3.8805302316	-0.8609406571	-0.209548
C	 1.1224263409	 3.4468217929	-0.6165038403	 0.378187
O	 2.0485924021	 4.1915148112	-0.5554744186	-0.270607
C	 1.2280955693	 1.9267240183	-0.3382978021	 0.10842
O	 2.2571142046	 1.3308916979	-0.4592961829	-0.215417
H	-0.8814152431	 2.4098477276	-2.1151361818	 0.145729
H	-2.0716191975	 3.3854184095	-1.1898216465	 0.172401
64.3831	121.3024	230.5235	315.3596	319.3451	366.6898	444.2574	503.4803	572.2281	632.15	672.9256	774.967	853.8101	973.2703	1056.8243	1058.9667	1130.1308	1155.6613	1279.6296	1294.9391	1448.7192	1526.7237	1849.3288	1869.1338	1891.2063	3040.5305	3172.0918
O=C1OCOC(=O)C1=O	O=C1OCOC(=O)C1=O	
InChI=1S/C4H2O5/c5-2-3(6)8-1-9-4(2)7/h1H2	InChI=1S/C4H2O5/c5-2-3(6)8-1-9-4(2)7/h1H2
