10
gdb 130533	4.06848	1.84732	1.27046	0.99	63.61	-0.292	-0.1453	0.1467	842.9842	0.054861	-463.692568	-463.686733	-463.685789	-463.722753	21.938	
O	-0.0870310069	 1.1740137796	 0.0092785692	-0.198963
N	 1.1032956512	 2.0546006553	 0.002548672	 0.058559
N	 2.2351974172	 1.5463053707	-0.011103046	-0.160341
C	 2.3432205869	 0.1834124886	-0.0195138966	 0.38648
N	 3.418647773	-0.5551475313	-0.0333131478	-0.301859
C	 2.8657141683	-1.8425058887	-0.0354661473	 0.054421
N	 1.5509005709	-1.9621386267	-0.0235223937	-0.285181
C	 1.159092453	-0.6508455522	-0.0124407423	 0.401639
N	-0.0492086948	-0.1685228372	 0.0017382086	-0.112157
H	 3.5210113111	-2.704412948	-0.0461134062	 0.157402
201.637	259.8861	347.0238	358.9736	482.3385	574.561	596.4604	633.7208	636.2268	784.8799	827.4012	917.6772	936.8014	981.7938	1024.8592	1099.7754	1230.4808	1325.1056	1389.6634	1453.0017	1536.8847	1604.3852	1639.932	3237.634
O1N=NC2=NC=NC2=N1	o1nnc2ncnc2n1	
InChI=1S/C3HN5O/c1-4-2-3(5-1)7-9-8-6-2/h1H	InChI=1S/C3HN5O/c1-4-2-3(5-1)7-9-8-6-2/h1H
