11
gdb 129286	3.73253	1.28328	0.95495	2.832	69.82	-0.285	-0.1407	0.1443	1094.94	0.065764	-447.694051	-447.686865	-447.685921	-447.726991	25.354	
N	-0.0045939946	 1.3039777669	 0.009847922	-0.483129
C	-0.0301079446	 0.0439965067	 0.0036892577	 0.458667
O	 1.1790490202	-0.6834166012	-0.0071224302	-0.264625
N	 1.2168778705	-2.0588231144	-0.0152951257	-0.020367
C	 0.0868940332	-2.6654188068	-0.0129741298	-0.006747
C	-1.1748855684	-1.9362751809	-0.0025108662	 0.20807
N	-1.233096419	-0.6522257656	 0.0053042775	-0.289339
C	-2.3974739756	-2.6989975092	-0.0006000058	 0.261922
N	-3.3402539827	-3.3681288161	 0.0003414602	-0.285589
H	 0.9550827758	 1.6507186639	 0.006693106	 0.248396
H	 0.1224590653	-3.7485842532	-0.0193226358	 0.172742
33.0877	138.598	150.4377	329.7723	432.2823	449.4825	455.3276	579.2815	587.0832	694.6144	705.484	763.8163	848.6332	875.7196	908.2042	926.9863	1001.1532	1068.1789	1197.6785	1283.7235	1353.4729	1605.6897	1669.9861	1736.4329	2355.2729	3212.8746	3503.5884
N=C1ON=CC(=N1)C#N	[NH]C1=N[C](C=NO1)C#N	
InChI=1S/C4H2N4O/c5-1-3-2-7-9-4(6)8-3/h2,6H	InChI=1S/C4H2N4O/c5-1-3-2-7-9-4(6)8-3/h2,6H
