11
gdb 24811	3.90591	1.2943	0.97216	5.8831	67.85	-0.2734	-0.0889	0.1846	1084.9052	0.065405	-451.547556	-451.540324	-451.539379	-451.58039	25.629	
O	-0.0510376127	-0.0367010309	 0.0036997457	-0.300902
C	-0.0381146621	 1.1619178844	 0.0097448587	 0.396596
N	-1.2484009438	 1.9151169568	 0.0308718107	-0.27928
C	-1.1566275918	 3.1773139157	 0.0354369236	 0.125487
O	-0.0066852158	 3.9063130317	 0.0222706782	-0.19522
C	 1.1456589515	 3.1565708925	 0.0025837215	 0.24281
N	 1.1873652326	 1.8834036447	-0.004032778	-0.333054
C	 2.3115254741	 3.9736632015	-0.0102120581	 0.248567
C	 3.2970563067	 4.6603904359	-0.0210543484	-0.295677
H	-2.0227970046	 3.8333936457	 0.0510064406	 0.165938
H	 4.1757960759	 5.2592386121	-0.0307642646	 0.224734
39.9847	123.6753	146.6527	332.8137	427.2377	455.6455	499.0211	556.8115	602.8782	687.6139	689.067	734.6952	768.2133	831.5511	885.4917	936.2515	982.3482	1020.0209	1205.6205	1262.1126	1406.0989	1622.2062	1723.4577	1839.905	2249.6307	3186.6943	3493.9932
O=C1N=COC(=N1)C#C	O=c1ncoc(n1)C#C	
InChI=1S/C5H2N2O2/c1-2-4-7-5(8)6-3-9-4/h1,3H	InChI=1S/C5H2N2O2/c1-2-4-7-5(8)6-3-9-4/h1,3H
