10
gdb 21370	5.61066	2.35262	1.65758	5.3802	54.42	-0.2517	-0.0567	0.195	670.141	0.06318	-409.614632	-409.609409	-409.608465	-409.64381	19.827	
N	-0.0473158278	 1.3722505583	 0.0105329372	-0.377727
C	 1.2764945807	 1.746704387	-0.0009478088	 0.027716
N	 2.1376275277	 0.7370903907	-0.0145461449	-0.346828
C	 1.3144821032	-0.3430941563	-0.01231997	 0.418724
C	-0.0141807131	-0.003395371	 0.0025938894	 0.321675
N	-0.7648683654	-1.1255437579	 0.0039336381	-0.212822
N	 0.0016790295	-2.131636473	-0.0096436509	-0.035554
O	 1.4255308785	-1.6585407971	-0.0201353492	-0.242634
H	-0.8449534169	 1.9849085944	 0.0218953313	 0.29096
H	 1.5596304537	 2.789027925	 0.0018505076	 0.156491
233.973	362.5072	419.7668	447.5659	545.5474	640.8868	646.7173	717.0323	774.3229	787.5947	843.4905	947.3329	1007.1198	1092.1904	1210.5867	1283.4734	1385.1747	1387.5424	1453.9083	1476.5062	1552.2366	1582.4663	3257.2685	3677.4118
N1C=NC2=C1N=NO2	[nH]1cnc2c1nno2	
InChI=1S/C3H2N4O/c1-4-2-3(5-1)8-7-6-2/h1H,(H,4,5)	InChI=1S/C3H2N4O/c1-4-2-3(5-1)8-7-6-2/h1H,(H,4,5)
