11
gdb 48233	2.83563	1.37824	0.92746	2.7895	59.72	-0.3031	-0.1126	0.1905	1114.4008	0.063558	-488.735374	-488.726898	-488.725954	-488.770009	27.885	
O	-0.0803447735	-0.0492846551	 0.0019355568	-0.274218
C	-0.0419908822	 1.1484704483	 0.0083035019	 0.189443
N	 1.1856888082	 1.8775644903	 0.0007399823	-0.237701
C	 2.4040566886	 1.1405302507	-0.0147612841	 0.178396
O	 3.4886547392	 1.6460267437	-0.0221513005	-0.250738
C	 1.1095480129	 3.2836633733	 0.0091176596	 0.397545
O	 0.0575218208	 3.8726253779	 0.0216620365	-0.293277
C	 2.3620745757	 4.0397558331	 0.0012353813	 0.259318
N	 3.2270456079	 4.8061198993	-0.0028830417	-0.304085
H	-0.9120641681	 1.815698636	 0.0199507796	 0.168472
H	 2.1995456006	 0.0624059324	-0.0185040917	 0.166845
20.8866	140.4959	173.3325	175.8228	243.3068	251.6958	281.4679	332.1305	438.6737	461.7281	622.0835	740.5601	776.4451	789.3114	1049.3844	1049.4732	1054.3542	1220.7652	1258.0845	1418.3778	1424.6741	1782.8304	1828.8044	1853.5826	2349.0291	3076.3682	3085.1324
O=CN(C=O)C(=O)C#N	O=CN(C=O)C(=O)C#N	
InChI=1S/C4H2N2O3/c5-1-4(9)6(2-7)3-8/h2-3H	InChI=1S/C4H2N2O3/c5-1-4(9)6(2-7)3-8/h2-3H
