11
gdb 21431	3.29504	2.59782	1.45259	2.9771	57.28	-0.2737	-0.064	0.2098	763.8764	0.072266	-430.679574	-430.67316	-430.672215	-430.71098	22.968	
N	-0.0115525848	 1.2430544952	 0.4222734826	-0.450062
C	-0.0229378496	 0.050014731	 0.0331894198	 0.3385
O	 1.1324143067	-0.5675017427	-0.4252429897	-0.214676
C	 1.0717839957	-1.8535828226	-0.833996976	 0.151357
N	 0.0682290102	-2.6296507196	-0.8665085695	-0.119086
O	-1.150940006	-2.0906382122	-0.4195687057	-0.276212
C	-1.2570599148	-0.7923803783	 0.0298487496	 0.362684
N	-2.361873603	-0.3351218833	 0.4243453667	-0.454695
H	 0.9265581458	 1.6408647862	 0.3452053215	 0.24435
H	 2.0271194394	-2.2357803467	-1.1710255672	 0.173244
H	-3.0901857497	-1.0491430768	 0.3512142379	 0.244596
53.8325	108.9607	357.5871	421.2608	492.7547	512.0226	548.2986	556.2809	708.4756	762.7451	879.7682	905.6671	915.3043	936.148	969.8441	982.0118	1065.1598	1169.6731	1241.776	1337.7164	1367.534	1715.2273	1748.2195	1778.0247	3233.3617	3472.4655	3480.9723
N=C1OC=NOC1=N	[NH]C1=C(ON=CO1)[NH]	
InChI=1S/C3H3N3O2/c4-2-3(5)8-6-1-7-2/h1,4-5H	InChI=1S/C3H3N3O2/c4-2-3(5)8-6-1-7-2/h1,4-5H
