9
gdb 33390	1.53182	1.53179	1.53175	0.0002	61.16	-0.3963	-0.0715	0.3249	1008.4589	0.040767	-409.37171	-409.363317	-409.362373	-409.405168	27.771	
N	 0.0179502125	-1.1681752195	-0.0044397729	-0.272024
C	 0.0022392121	-0.0153982362	 0.0019593231	 0.358937
C	-0.0179121394	 1.4677848316	 0.0101183453	-0.347601
C	 1.3737045859	 1.9812510032	-0.0003683215	 0.358852
N	 2.4553426201	 2.3802139144	-0.0086119188	-0.271965
C	-0.7353204899	 1.959133428	-1.1916343624	 0.358918
N	-1.2929307182	 2.3410289598	-2.1256637191	-0.272006
C	-0.712258432	 1.9461602988	 1.230526363	 0.358876
N	-1.2518233711	 2.3179775098	 2.1791033533	-0.271986
114.5752	114.7354	151.8029	151.933	152.0208	353.7498	353.8388	353.9573	558.2514	558.2911	558.321	574.5303	574.6334	587.1285	1068.456	1068.5595	1068.6225	2380.0576	2380.0891	2380.1329	2390.7466
N#CC(C#N)(C#N)C#N	N#CC(C#N)(C#N)C#N	
InChI=1S/C5N4/c6-1-5(2-7,3-8)4-9	InChI=1S/C5N4/c6-1-5(2-7,3-8)4-9
