10
gdb 8959	5.37693	0.93853	0.79906	3.4399	81.85	-0.2684	-0.1011	0.1673	1290.7685	0.057083	-342.916273	-342.908369	-342.907425	-342.94908	27.43	
O	 0.0218868144	-0.0848235047	 0.0035615264	-0.25427
C	-0.0087063343	 1.1303480605	 0.0067657989	 0.10168
C	 1.1875263226	 1.9464141162	 0.0006414458	 0.29082
C	 2.1838883488	 2.6214976461	-0.0044728636	-0.473951
C	-1.2435359416	 1.8785291149	 0.0170233428	 0.540316
C	-2.292500196	 2.4880096152	 0.0256838191	-0.42017
C	-3.4643695218	 3.1709471286	 0.0353811109	 0.314813
C	-4.507597685	 3.7794846756	 0.0439746616	-0.53364
H	 3.0684362863	 3.2113354908	-0.0090328706	 0.224865
H	-5.4257055734	 4.3141243567	 0.0515628986	 0.209539
67.0998	107.2575	174.2276	242.6024	267.4133	328.7998	471.5392	504.8557	567.8592	591.6681	607.0102	641.2647	655.0537	685.1314	708.8222	783.0432	989.0519	1234.143	1713.9554	2174.402	2217.1367	2332.7239	3492.432	3499.1934
O=C(C#C)C#CC#C	O=C(C#C)C#CC#C	
InChI=1S/C7H2O/c1-3-5-6-7(8)4-2/h1-2H	InChI=1S/C7H2O/c1-3-5-6-7(8)4-2/h1-2H
