11
gdb 130792	3.31344	1.46197	1.14009	3.8438	63.23	-0.2864	-0.1318	0.1546	980.1961	0.062714	-488.64612	-488.638473	-488.637529	-488.678879	26.827	
O	 0.0884685873	 0.0557940125	 0.7370542914	-0.297006
C	 0.0154621518	 1.0402265459	 0.0473348601	 0.405122
O	-1.0667015417	 1.2449978676	-0.741447796	-0.293253
N	-1.6722548901	 2.714044367	-0.9087623511	 0.043208
N	-0.988771974	 3.4925450792	-1.4912184582	-0.020665
C	 0.3668970253	 3.2225051988	-2.038565821	 0.394558
O	 0.5490184461	 3.41099357	-3.2001411233	-0.245538
C	 1.3637829144	 2.8957755977	-1.0036069772	-0.164088
C	 1.171269602	 1.9785599578	-0.0505971918	-0.143477
H	 2.3058817414	 3.4276860484	-1.0947410545	 0.164042
H	 1.9554030674	 1.765762495	 0.6679532316	 0.157098
64.1828	107.8744	225.1279	247.6327	281.4232	315.6899	412.4821	553.1786	574.3688	604.6159	685.3847	719.8472	763.569	833.05	848.9463	878.9101	1021.1069	1086.1453	1140.0713	1272.6004	1380.3234	1677.2279	1762.9056	1796.3235	1883.508	3183.9487	3207.9244
O=C1ON=NC(=O)C=C1	O=c1onnc(=O)cc1	
InChI=1S/C4H2N2O3/c7-3-1-2-4(8)9-6-5-3/h1-2H	InChI=1S/C4H2N2O3/c7-3-1-2-4(8)9-6-5-3/h1-2H
