11
gdb 130910	5.37306	1.08118	0.90007	4.0083	62.57	-0.2901	-0.1409	0.1492	1148.6256	0.064256	-488.668641	-488.661349	-488.660405	-488.701681	25.228	
O	-0.1230105435	-0.0194088571	-0.0001076657	-0.219521
C	-0.0290111036	 1.1769200846	 0.0072976652	 0.119103
C	 1.2655556884	 1.9325628786	-0.0013263577	 0.212346
N	 2.3686597059	 1.2475334922	-0.0187211957	-0.052504
O	 3.5196625231	 1.9519381547	-0.0259464371	-0.223172
C	 3.5744518756	 3.3838522454	-0.0149006385	 0.494688
O	 4.6588040469	 3.8671655735	-0.0220397682	-0.288963
N	 2.3653798254	 4.0732238935	 0.002661717	-0.293264
C	 1.283944433	 3.3757196703	 0.0089891269	-0.004709
H	-0.9218493237	 1.8392565773	 0.0220977442	 0.100377
H	 0.3347818526	 3.915127197	 0.0230224093	 0.15562
36.2146	102.3183	195.3865	276.5566	357.8609	406.4515	495.0126	529.9059	593.7823	640.4597	756.3557	802.2584	805.5124	901.2252	984.0876	1036.7254	1055.8748	1158.9924	1225.1149	1423.863	1436.287	1558.3448	1672.1335	1833.3249	1903.1508	2899.553	3118.3751
O=CC1=NOC(=O)N=C1	O=Cc1noc(=O)nc1	
InChI=1S/C4H2N2O3/c7-2-3-1-5-4(8)9-6-3/h1-2H	InChI=1S/C4H2N2O3/c7-2-3-1-5-4(8)9-6-3/h1-2H
