11
gdb 24964	5.44615	1.38757	1.10583	2.7603	57.47	-0.2194	-0.0172	0.2022	958.5757	0.067597	-488.719507	-488.712915	-488.711971	-488.75254	23.614	
O	 0.0434781052	 0.0120409706	 0.0023893227	-0.356246
C	-0.0420060518	 1.2004762541	 0.0104637594	 0.467731
N	-1.1589897148	 2.0210456209	 0.0298622391	-0.497511
C	-0.7312020988	 3.3510823584	 0.0315886621	 0.289171
C	 0.6028633768	 3.2978753329	 0.0128495996	 0.384918
O	 1.1207013556	 4.5349408225	 0.0117068884	-0.192505
C	-0.0285019851	 5.3130210491	 0.0317875197	 0.038377
N	-1.1551572769	 4.6554951778	 0.0438713935	-0.336372
O	 1.1164808266	 2.0549542557	-0.0013072284	-0.25625
H	-2.0896734952	 1.6420006829	 0.0412030479	 0.291624
H	 0.1292012984	 6.3774819852	 0.0352259261	 0.167064
11.0418	149.3499	346.2077	361.8553	392.0828	585.5606	592.7981	626.7893	716.6838	742.502	747.8121	771.4001	803.6294	859.506	941.0331	1035.2655	1078.0947	1211.0433	1286.4779	1313.0408	1461.7983	1480.7291	1523.5141	1703.6567	1928.3371	3308.0065	3693.3927
O=C1NC2=C(OC=N2)O1	O=c1[nH]c2c(ocn2)o1	
InChI=1S/C4H2N2O3/c7-4-6-2-3(9-4)8-1-5-2/h1H,(H,6,7)	InChI=1S/C4H2N2O3/c7-4-6-2-3(9-4)8-1-5-2/h1H,(H,6,7)
