11
gdb 8607	2.12076	2.12017	1.51329	3.6516	59.59	-0.3695	-0.0412	0.3282	866.7305	0.070795	-356.456071	-356.448082	-356.447138	-356.488437	27.221	
C	-0.0190614595	 1.5503711073	 0.010515593	-0.399513
C	 0.0021451215	-0.0099543664	 0.0018914225	-0.228082
C	 0.7163900857	-0.5052160288	 1.1983084387	 0.330704
N	 1.2803289886	-0.8503099125	 2.1437060638	-0.295069
C	-1.383163412	-0.5271477468	 0.0123386613	 0.330711
N	-2.4785518503	-0.8889957383	 0.0213791075	-0.295083
C	 0.6933684789	-0.492370011	-1.2131076576	 0.330614
N	 1.2394939878	-0.8268583663	-2.1726654771	-0.295012
H	 1.0061638375	 1.922488401	 0.0028611263	 0.173578
H	-0.5473576471	 1.9061447099	-0.8748879636	 0.173571
H	-0.5306143811	 1.8964158619	 0.909498805	 0.173581
128.9929	129.0433	162.1307	222.3821	222.6589	243.4067	372.6877	489.4314	489.4883	573.9519	582.5126	582.608	650.3127	947.0981	947.2798	1036.1135	1190.9518	1191.1488	1410.8563	1484.7313	1484.8738	2373.5724	2373.6024	2381.5303	3070.6235	3166.6057	3166.753
CC(C#N)(C#N)C#N	CC(C#N)(C#N)C#N	
InChI=1S/C5H3N3/c1-5(2-6,3-7)4-8/h1H3	InChI=1S/C5H3N3/c1-5(2-6,3-7)4-8/h1H3
