11
gdb 23805	3.39411	2.34344	1.38629	3.2687	56.23	-0.2459	-0.0649	0.181	778.9313	0.073794	-438.716554	-438.710633	-438.709689	-438.746738	22.125	
F	-0.0049830557	 0.0308789322	 0.0035911657	-0.039999
C	-0.0464005324	 1.3491148925	 0.0112797245	 0.217112
C	-1.2118891983	 2.0355315219	 0.0300931542	-0.249403
C	-1.1611439728	 3.4617021943	 0.0370109963	 0.016986
N	-0.0503564516	 4.1412645429	 0.0258898747	-0.185471
N	 1.0802023359	 3.4178933462	 0.0074054327	-0.261912
C	 1.2476768819	 2.0305224324	-0.001556064	 0.32228
O	 2.3447124902	 1.5089792101	-0.0196320767	-0.375614
H	-2.1604165915	 1.5109173024	 0.039608797	 0.135984
H	-2.0722533341	 4.0479406409	 0.0519379301	 0.138211
H	 1.9349656484	 3.9599121942	-0.0012719044	 0.281826
147.8604	272.5475	303.4298	429.7453	471.2772	553.9313	592.8666	610.4472	737.589	757.8309	776.9824	878.0728	915.5633	949.6145	1046.3145	1165.975	1196.7982	1307.673	1364.1416	1397.3732	1452.4033	1592.1263	1674.1529	1796.0837	3198.9012	3211.5567	3590.4786
FC1=CC=NNC1=O	Fc1ccn[nH]c1=O	
InChI=1S/C4H3FN2O/c5-3-1-2-6-7-4(3)8/h1-2H,(H,7,8)	InChI=1S/C4H3FN2O/c5-3-1-2-6-7-4(3)8/h1-2H,(H,7,8)
