9
gdb 128887	5.93558	1.00074	0.85636	0.6476	66.31	-0.3282	-0.1235	0.2047	1176.7364	0.043175	-446.533049	-446.52626	-446.525315	-446.564833	23.311	
N	 0.1732599034	-1.0834114228	-0.0049571491	-0.288185
C	 0.0587029288	 0.0665861374	 0.0025425508	 0.279714
C	-0.081296311	 1.4763338639	 0.0117298563	 0.313145
N	-1.1814165908	 2.1723259646	 0.0309851862	-0.224944
N	-0.7981473152	 3.4943301952	 0.032257599	-0.224928
C	 0.5036521025	 3.4938897519	 0.0136594829	 0.313127
O	 1.0335132994	 2.2466899357	-0.0002602553	-0.159483
C	 1.3760449787	 4.6101188186	 0.0068959304	 0.27975
N	 2.0886466443	 5.5199762155	 0.0013629188	-0.288195
121.2346	122.5694	216.1196	216.3363	456.2992	497.1788	519.3169	538.3957	601.9525	668.6522	733.5935	755.8173	1003.5037	1020.7266	1093.7756	1215.5083	1361.6618	1529.5644	1535.3309	2372.0898	2372.2041
N#CC1=NN=C(O1)C#N	N#Cc1nnc(o1)C#N	
InChI=1S/C4N4O/c5-1-3-7-8-4(2-6)9-3	InChI=1S/C4N4O/c5-1-3-7-8-4(2-6)9-3
