11
gdb 21743	5.6289	2.43403	1.69925	3.3974	56.08	-0.2505	-0.0131	0.2374	673.6706	0.076166	-393.595215	-393.590215	-393.589271	-393.624257	19.268	
O	-0.0614826101	 1.312343673	 0.009691474	-0.212891
C	 1.2577532137	 1.7454609064	-0.0005911835	-0.047775
C	 2.1148117344	 0.7011763936	-0.014404214	-0.113151
N	 1.3000096525	-0.4234789627	-0.0126744088	 0.01731
N	 1.3634031855	-1.7816096766	-0.0205680003	-0.281491
C	 0.0625234495	-2.0814736037	-0.0096717962	 0.036108
N	-0.8277698685	-1.0375668349	 0.0043998794	-0.389065
C	 0.0097138956	-0.0289883351	 0.001797526	 0.510389
H	 1.4042182901	 2.8104123356	 0.0037248873	 0.169011
H	 3.1894860582	 0.6670576039	-0.0248762191	 0.176164
H	-0.2639898011	-3.1106218997	-0.0120682348	 0.135392
210.4297	349.7409	498.0128	587.8808	657.2121	715.4331	732.877	769.831	776.8626	798.2669	900.3132	930.8544	985.8249	1037.3182	1134.8429	1184.872	1206.7716	1259.0597	1278.3932	1412.8416	1424.1546	1473.4819	1589.5323	1630.8588	3264.7969	3300.5091	3322.2279
O1C=CN2N=CN=C12	o1ccn2ncnc12	
InChI=1S/C4H3N3O/c1-2-8-4-5-3-6-7(1)4/h1-3H	InChI=1S/C4H3N3O/c1-2-8-4-5-3-6-7(1)4/h1-3H
