11
gdb 21375	5.55927	2.28169	1.61773	6.3662	57.62	-0.2365	-0.037	0.1995	695.9636	0.075647	-393.570228	-393.564977	-393.564033	-393.599408	20.372	
N	-0.0390499716	 1.388901059	 0.0101593451	-0.43946
C	 1.2914303233	 1.7760453496	-0.0004307882	 0.030869
N	 2.1618911177	 0.8032044975	-0.0144013561	-0.325749
C	 1.3668084251	-0.3320272246	-0.0130395857	 0.418291
N	 1.5738208824	-1.6314354636	-0.0224593191	-0.249082
O	 0.2819463902	-2.1597787426	-0.0127494255	-0.169932
C	-0.6620802311	-1.1822585236	 0.0019766922	-0.052467
C	-0.0176512332	 0.0084578932	 0.0023737586	 0.211609
H	-0.8340416564	 2.0026957988	 0.0217764011	 0.276159
H	 1.5495089022	 2.8269689276	 0.0029715281	 0.147489
H	-1.6847261986	-1.5188216813	 0.0100905195	 0.152273
269.5364	314.8041	367.8645	512.2849	577.5739	630.4134	722.917	747.867	754.8869	786.798	901.889	905.5993	941.6073	978.0891	1079.8165	1098.8219	1177.3754	1286.4098	1313.6098	1386.1239	1430.1401	1537.9136	1559.3856	1714.8624	3235.7912	3284.0847	3688.6101
N1C=NC2=NOC=C12	[nH]1cnc2nocc12	
InChI=1S/C4H3N3O/c1-3-4(7-8-1)6-2-5-3/h1-2H,(H,5,6,7)	InChI=1S/C4H3N3O/c1-3-4(7-8-1)6-2-5-3/h1-2H,(H,5,6,7)
