9
gdb 8960	5.37678	0.93541	0.79679	3.8153	72.77	-0.3019	-0.1262	0.1756	1264.7963	0.046737	-359.010919	-359.003363	-359.002419	-359.043608	25.301	
O	 0.0031463143	-0.0823389794	 0.0033874266	-0.240848
C	-0.0028338346	 1.1303342842	 0.0067804205	 0.149108
C	 1.1908733792	 1.9410129622	 0.0005205013	 0.288321
C	 2.1843291264	 2.6202302764	-0.0046708445	-0.454807
C	-1.2441513976	 1.8866115381	 0.0172552964	 0.155561
C	-2.2927114053	 2.4896601007	 0.0260228002	-0.047933
C	-3.4720789526	 3.1756021991	 0.0359147164	 0.229424
N	-4.4735509542	 3.7638547482	 0.0443078303	-0.314322
H	 3.0674274344	 3.2132388004	-0.0092724571	 0.235497
67.5532	108.7204	172.9585	240.1799	269.9232	336.232	462.5981	539.5497	591.6072	598.1499	668.3059	686.216	721.6007	775.6496	985.8956	1215.5049	1726.3354	2219.8506	2253.8764	2385.6546	3488.6148
O=C(C#C)C#CC#N	O=C(C#C)C#CC#N	
InChI=1S/C6HNO/c1-2-6(8)4-3-5-7/h1H	InChI=1S/C6HNO/c1-2-6(8)4-3-5-7/h1H
