11
gdb 21384	5.72229	2.19928	1.58869	2.9526	57.4	-0.2541	-0.0393	0.2148	705.0485	0.076037	-393.553724	-393.548529	-393.547585	-393.582908	20.069	
N	 0.0258073172	 1.3832252512	 0.0097557159	-0.354236
N	 1.3042428003	 1.8302437812	-0.0003048682	-0.19417
C	 2.0953700901	 0.7563356585	-0.0139996863	-0.149622
C	 1.2910712077	-0.400620326	-0.01259208	 0.329717
C	-0.0206107461	 0.0245811083	 0.0026659665	 0.264526
C	-0.7748014128	-1.1764019874	 0.0033885197	-0.101825
N	 0.0289422202	-2.2177605232	-0.0103865135	-0.121832
O	 1.3519164078	-1.7443693704	-0.0207193724	-0.236186
H	-0.7199641545	 2.0560485538	 0.0208360681	 0.282522
H	 3.1666857815	 0.8724689718	-0.0238527209	 0.137161
H	-1.8407837315	-1.3485431479	 0.0129007211	 0.143944
234.7433	348.0637	414.098	465.1514	615.5896	672.8778	684.0903	748.7443	771.4093	854.2755	877.3231	884.5009	953.6005	995.1135	1096.7278	1184.811	1236.3845	1250.2363	1345.9081	1409.3622	1449.0681	1480.0413	1573.3526	1610.1598	3254.8666	3273.5074	3692.2715
N1N=CC2=C1C=NO2	[nH]1ncc2c1cno2	
InChI=1S/C4H3N3O/c1-3-4(8-6-1)2-5-7-3/h1-2H,(H,5,7)	InChI=1S/C4H3N3O/c1-3-4(8-6-1)2-5-7-3/h1-2H,(H,5,7)
