10
gdb 21770	3.75754	2.51433	1.81481	3.4687	54.5	-0.2565	-0.1386	0.1179	674.1687	0.061022	-409.600768	-409.594916	-409.593972	-409.630764	21.083	
O	-0.0121603893	 0.2708908358	-0.787757867	-0.277927
C	-0.0155240606	 1.2217885607	-0.0646691931	 0.387601
N	-1.1885588261	 1.7990526908	 0.4814516516	-0.191431
C	-1.418739968	 3.0211498889	 0.2046634737	 0.085697
N	-0.6895793155	 3.8723294951	-0.6706348873	-0.112852
N	 0.5696747798	 3.8895046652	-0.6873626685	-0.112852
C	 1.3447645998	 3.0588402184	 0.1679514294	 0.085697
N	 1.1554233959	 1.8310220231	 0.4503145582	-0.191431
H	-2.3273821143	 3.4993604325	 0.5689828215	 0.163749
H	 2.2493800785	 3.5617839395	 0.5081912716	 0.163749
144.3508	238.7945	326.9502	330.4714	479.0988	527.4035	645.0676	712.8239	816.8458	851.8352	888.7079	933.8083	976.7637	978.0725	1028.7918	1134.5988	1370.9262	1391.6154	1522.4467	1662.2759	1663.0407	1858.3336	3150.4483	3152.2362
O=C1N=CN=NC=N1	O=c1ncnncn1	
InChI=1S/C3H2N4O/c8-3-4-1-6-7-2-5-3/h1-2H	InChI=1S/C3H2N4O/c8-3-4-1-6-7-2-5-3/h1-2H
