11
gdb 5059	3.74009	2.40654	1.69741	2.6158	59.27	-0.2566	-0.0974	0.1592	711.9418	0.073821	-393.596961	-393.590974	-393.59003	-393.627139	21.655	
O	-0.2010555584	 0.4281739777	-1.163670309	-0.307101
C	-0.0706203864	 1.2872467471	-0.3292595383	 0.347898
C	-1.2350263063	 1.8824201669	 0.4281370488	-0.053146
N	-1.5201477296	 3.1274552005	 0.3494165336	-0.16305
C	-0.7007562666	 4.0475774431	-0.2579778939	 0.095101
N	 0.5913059277	 4.1172301307	-0.2200354119	-0.226318
C	 1.3448792416	 3.0676060743	 0.246129893	 0.085536
N	 1.1293769882	 1.8012456872	 0.1387492329	-0.233062
H	-1.8675782655	 1.2293545621	 1.0315336997	 0.160323
H	-1.233706183	 4.8812151944	-0.7126626629	 0.148895
H	 2.2889853585	 3.3706709361	 0.6982412181	 0.144924
124.7302	245.8647	304.0576	356.5857	427.716	502.3953	642.7994	651.3965	771.9223	867.3431	872.9156	952.6832	989.5383	1023.4605	1058.3904	1123.2435	1169.9684	1362.2245	1422.4556	1433.0149	1538.416	1641.8932	1684.1447	1813.5792	3125.0404	3143.5064	3154.181
O=C1C=NC=NC=N1	O=c1cncncn1	
InChI=1S/C4H3N3O/c8-4-1-5-2-6-3-7-4/h1-3H	InChI=1S/C4H3N3O/c8-4-1-5-2-6-3-7-4/h1-3H
