10
gdb 23818	3.33162	2.37445	1.38638	1.4673	55.97	-0.2564	-0.0917	0.1647	767.0525	0.058769	-454.677321	-454.671018	-454.670074	-454.708069	22.923	
F	 0.0036005118	 0.034729339	 0.1265977554	-0.039214
C	-0.0040158538	 1.3551344623	 0.0387813145	 0.146888
C	-1.1606536484	 2.0326579382	-0.0269913432	-0.002067
O	-1.222715101	 3.3725437363	-0.1170600754	-0.241161
N	 0.0467750994	 4.1177967845	-0.1434595365	 0.056588
N	 1.0915105103	 3.4945607207	-0.0832994497	-0.142071
C	 1.2496006279	 2.0639714089	 0.0142600196	 0.308019
N	 2.4000630463	 1.52870478	 0.0702746877	-0.497996
H	-2.1347247351	 1.5561486039	-0.0128644756	 0.16857
H	 3.1217112326	 2.2511397964	 0.0353597232	 0.242444
83.8321	295.5121	309.4799	353.8917	417.4153	484.2473	527.3544	551.696	589.8756	764.4328	776.437	890.8284	910.2267	915.0885	1018.6823	1164.4052	1253.912	1294.2544	1424.0628	1650.4208	1703.4446	1736.6741	3204.6307	3475.603
FC1=CON=NC1=N	FC1=CO[N]N=C1[NH]	
InChI=1S/C3H2FN3O/c4-2-1-8-7-6-3(2)5/h1,5H	InChI=1S/C3H2FN3O/c4-2-1-8-7-6-3(2)5/h1,5H
