11
gdb 21882	5.84521	1.50375	1.19605	4.1837	56.03	-0.2633	-0.0621	0.2012	894.6799	0.073654	-430.75513	-430.748826	-430.747882	-430.785832	22.595	
O	 0.0854127911	 1.2979586619	-0.0895436081	-0.390358
C	 0.0706095281	-0.0318046635	-0.0556011703	 0.461926
N	 0.0378852728	-0.7522759771	-1.1532465963	-0.28799
N	 0.0344030679	-2.0246457889	-0.6387747161	-0.020925
C	 0.0034482525	-3.187866575	-1.424460166	 0.193628
O	-0.0232440252	-3.2076868694	-2.6182749893	-0.243739
C	 0.0652394432	-1.969071097	 0.7252785454	 0.04432
N	 0.0888112754	-0.727862992	 1.1334532858	-0.351819
H	 0.1092862326	 1.6064028744	 0.82479291	 0.320083
H	 0.007275653	-4.08298544	-0.7755601678	 0.106625
H	 0.0687009784	-2.8516894735	 1.3478987828	 0.168248
123.061	199.7236	235.2385	384.7879	427.3225	456.1541	522.2466	631.975	722.3145	772.6721	847.0452	866.5521	993.1254	1014.3048	1039.0716	1210.5628	1224.5074	1302.5376	1396.1649	1411.9826	1454.5818	1534.5181	1663.3723	1857.1473	2972.0282	3256.4224	3810.8116
OC1=NN(C=O)C=N1	Oc1nn(C=O)cn1	
InChI=1S/C3H3N3O2/c7-2-6-1-4-3(8)5-6/h1-2H,(H,5,8)	InChI=1S/C3H3N3O2/c7-2-6-1-4-3(8)5-6/h1-2H,(H,5,8)
