10
gdb 21739	5.52229	2.32063	1.63398	4.1422	55.14	-0.2532	-0.062	0.1911	679.8931	0.061952	-413.424158	-413.418947	-413.418003	-413.453364	19.82	
O	-0.0642803402	 1.3385920056	 0.0100060317	-0.179287
C	 1.2376769732	 1.7724643802	-0.0003718985	 0.026961
C	 2.1574617308	 0.7565566841	-0.0146783315	-0.352321
C	 1.3564644414	-0.4237917253	-0.0130599919	 0.353908
C	 0.0537317156	-0.0056726307	 0.0018213748	 0.326209
N	-0.7739399774	-1.0664741838	 0.0043115644	-0.196777
N	-0.0987031227	-2.1251953673	-0.0078628771	-0.033898
O	 1.383506879	-1.7396777336	-0.0202295141	-0.255296
H	 1.3552486587	 2.8440196596	 0.0041181421	 0.162388
H	 3.2289943117	 0.8653531612	-0.0245398198	 0.148112
229.5038	360.1595	363.9264	506.1539	592.5356	643.8636	700.1689	745.3175	754.1998	781.0421	843.1742	910.1997	985.4467	1046.428	1164.1314	1197.7453	1317.5567	1406.0769	1468.5986	1502.2735	1540.5785	1572.8098	3272.1192	3289.9235
O1C=CC2=C1N=NO2	o1ccc2c1nno2	
InChI=1S/C4H2N2O2/c1-2-7-4-3(1)8-6-5-4/h1-2H	InChI=1S/C4H2N2O2/c1-2-7-4-3(1)8-6-5-4/h1-2H
