10
gdb 23733	5.87607	1.60403	1.26006	1.7159	53.31	-0.256	-0.0994	0.1566	825.7037	0.060185	-458.594439	-458.588582	-458.587638	-458.624703	21.573	
F	 0.0096835452	 0.0205348922	 0.0027163429	-0.060644
C	-0.0342052691	 1.3458417693	 0.0105955244	 0.255498
C	-1.2122758645	 1.9997340185	 0.0298059892	-0.069104
O	-1.2424777964	 3.3476141076	 0.0376836537	-0.193699
C	-0.0648777146	 4.0956335651	 0.0264305847	 0.406842
O	-0.1257331035	 5.2923212669	 0.0331179112	-0.320532
C	 1.152584437	 3.273760885	 0.0053642634	-0.113849
N	 1.1630213592	 1.9817099116	-0.0018656451	-0.232947
H	-2.1894646501	 1.5361772389	 0.0402012843	 0.168256
H	 2.0940376567	 3.815501455	-0.0043804287	 0.160178
105.2381	350.0437	378.1856	385.483	434.9439	539.2512	546.8508	622.2569	769.8864	787.5791	809.2005	861.1629	943.6005	950.9453	1118.3022	1235.8682	1313.9751	1320.4646	1416.9095	1579.3656	1686.2728	1848.1397	3182.4459	3231.697
FC1=COC(=O)C=N1	Fc1coc(=O)cn1	
InChI=1S/C4H2FNO2/c5-3-2-8-4(7)1-6-3/h1-2H	InChI=1S/C4H2FNO2/c5-3-2-8-4(7)1-6-3/h1-2H
