11
gdb 129321	3.17332	1.51882	1.02719	2.278	69.33	-0.2882	-0.1388	0.1495	1022.4405	0.065282	-447.684078	-447.676793	-447.675849	-447.716317	25.971	
N	-0.0582053577	 1.2603120472	 0.368487545	-0.507091
C	-0.0328731726	 0.0532362329	-0.0021542672	 0.403505
O	 1.10869538	-0.5694970792	-0.4519248416	-0.285862
N	 1.1328586649	-1.9642628551	-0.8791300249	 0.07776
N	 0.0914801566	-2.6118736952	-0.8362988987	-0.102877
C	-1.1220167565	-2.0772762438	-0.3966199707	-0.04549
C	-1.226517993	-0.7981995376	 0.0139811104	 0.050793
C	-2.4663944924	-0.2583230556	 0.4612871543	 0.289264
N	-3.4957025983	 0.13317305	 0.8154923911	-0.302536
H	 0.8601385588	 1.698715121	 0.2905789446	 0.246766
H	-1.95412402	-2.7677090147	-0.4146616322	 0.175769
81.5289	153.6431	155.7835	296.1704	325.0109	458.2895	490.6323	517.2961	567.7677	621.9643	639.6727	770.7752	784.2466	878.6676	919.0826	946.9134	1016.6374	1080.4327	1178.423	1286.4811	1405.312	1594.5145	1659.1927	1739.4281	2352.0848	3238.884	3496.7087
N=C1ON=NC=C1C#N	[NH]C1=C(C=N[N]O1)C#N	
InChI=1S/C4H2N4O/c5-1-3-2-7-8-9-4(3)6/h2,6H	InChI=1S/C4H2N4O/c5-1-3-2-7-8-9-4(3)6/h2,6H
