11
gdb 21426	3.91797	2.13911	1.38366	1.6055	57.24	-0.2698	-0.0757	0.1941	792.9284	0.073944	-430.750224	-430.744015	-430.743071	-430.780934	22.63	
N	-0.078057885	 1.2761719659	 0.3461522417	-0.496507
C	-0.0402511099	 0.0754714625	-0.041139153	 0.377938
O	 1.1498797988	-0.5337398829	-0.4256786953	-0.259414
C	 1.2157725247	-1.8352805672	-0.8489761152	 0.502439
O	 2.2538362941	-2.3318260598	-1.1748099622	-0.346784
N	 0.0037868518	-2.4917645531	-0.8634181073	-0.318832
N	-1.2066506053	-1.9911626969	-0.5100562122	-0.144202
C	-1.2274692921	-0.769838786	-0.1186864113	-0.014502
H	 0.8507658347	 1.7001894609	 0.331548348	 0.244215
H	 0.0089514401	-3.451795142	-1.1696792482	 0.293183
H	-2.1774450818	-0.3394669015	 0.170600545	 0.162466
110.2587	136.2528	368.9257	389.8938	511.5601	527.6105	577.4389	585.5427	727.7059	745.3911	754.3091	892.4142	923.6598	951.3853	973.6336	1089.5756	1156.5574	1190.408	1341.0503	1381.5245	1450.6102	1676.7044	1743.3847	1881.9923	3228.9786	3488.6697	3652.2189
N=C1OC(=O)NN=C1	[NH]c1oc(=O)[nH]nc1	
InChI=1S/C3H3N3O2/c4-2-1-5-6-3(7)8-2/h1,4H,(H,6,7)	InChI=1S/C3H6N3O2/c4-2-1-5-6-3(7)8-2/h2,4-5H,1H2,(H,6,7)
