11
gdb 130531	3.73136	1.73389	1.1838	1.2998	73.61	-0.2599	-0.1185	0.1414	905.3524	0.065737	-447.635834	-447.629364	-447.628419	-447.66669	24.016	
O	-0.2773333696	 1.0731622087	 0.0106492709	-0.243984
N	 1.2043706247	 2.2177005501	 0.0025975628	-0.028531
N	 2.2098201881	 1.6050766682	-0.0104720905	-0.062263
C	 2.3427596593	 0.2383651339	-0.0192705096	 0.235936
C	 3.4308990089	-0.5985091729	-0.034386699	-0.086004
N	 3.0196206081	-1.9179954273	-0.0375046188	-0.237032
C	 1.6932271503	-1.9267031286	-0.0250550593	-0.051316
C	 1.1739012524	-0.5974612777	-0.0125856071	 0.285141
N	-0.086076829	-0.1866464965	 0.0018788838	-0.100421
H	 4.4815861818	-0.3440514503	-0.0430993806	 0.143794
H	 1.1227557152	-2.8465817777	-0.0245984925	 0.144678
188.4494	189.7139	213.2306	350.6566	413.7223	514.5648	526.1453	584.2563	633.2264	705.2503	735.829	814.2365	884.2399	889.3451	913.1351	1094.6897	1175.5529	1237.4792	1261.6676	1307.4674	1409.6672	1437.4911	1546.6822	1564.262	1797.6068	3226.4329	3240.0568
O1N=NC2=CN=CC2=N1	[O][N]c1c(N=[N])cnc1	
InChI=1S/C4H2N4O/c1-3-4(2-5-1)7-9-8-6-3/h1-2H	InChI=1S/C4H3N4O/c5-7-3-1-6-2-4(3)8-9/h1-2,6H
