11
gdb 130528	4.21823	1.76804	1.24585	1.8806	63.76	-0.2853	-0.0987	0.1866	868.5198	0.068927	-447.739368	-447.733749	-447.732805	-447.769368	21.532	
O	-0.1545731035	 1.2627198154	 0.0104629101	-0.240148
N	 1.2317204793	 1.8132567103	-0.000021955	 0.013473
N	 2.0445437215	 0.8752440039	-0.0129347273	-0.174669
C	 1.3777604734	-0.3384274233	-0.013055619	 0.177226
C	 0.00956102	-0.051325132	 0.0017285571	 0.472841
N	-0.9550835325	-0.9592200503	 0.0061605554	-0.332498
C	-0.4722756233	-2.2050941393	-0.0052420605	 0.082453
N	 0.8117146101	-2.6092584878	-0.0198635061	-0.254291
C	 1.7584131791	-1.6733994415	-0.0239645382	-0.043472
H	-1.2138895719	-2.9988556459	-0.0023792089	 0.144819
H	 2.7973486179	-1.9905256096	-0.0357322177	 0.154266
232.779	247.1409	387.7043	420.128	539.3748	579.9941	608.7991	663.5643	675.0578	805.9395	841.76	924.3717	964.9726	982.3761	1020.5367	1136.3788	1237.1694	1289.1095	1311.4255	1361.5564	1410.1289	1480.4653	1513.6882	1620.8913	1634.823	3179.5322	3185.6682
O1N=NC2=C1N=CN=C2	o1nnc2c1ncnc2	
InChI=1S/C4H2N4O/c1-3-4(6-2-5-1)9-8-7-3/h1-2H	InChI=1S/C4H2N4O/c1-3-4(6-2-5-1)9-8-7-3/h1-2H
