11
gdb 21369	5.6628	2.3173	1.64439	2.9972	57.25	-0.2359	-0.0239	0.212	685.7505	0.076981	-389.760779	-389.755583	-389.754639	-389.789897	20.159	
N	-0.0373075388	 1.3592819487	 0.0102293429	-0.381329
C	 1.2825039376	 1.7575802335	-0.0005729704	 0.017186
N	 2.1575417776	 0.7653310398	-0.0146701577	-0.354311
C	 1.3451115528	-0.3330616865	-0.0127539627	 0.389109
C	 0.0030782065	-0.0188301855	 0.0021897112	 0.368609
N	-0.7689864669	-1.1258854242	 0.0036487673	-0.300362
N	 0.0551732517	-2.148129091	-0.0101551301	-0.122357
N	 1.3431970018	-1.6867537509	-0.0202241184	-0.329502
H	-0.8427106655	 1.9611472399	 0.0214943582	 0.282684
H	 1.5478123654	 2.8048109706	 0.002616705	 0.144907
H	 2.0957376677	-2.3545849644	-0.0312950154	 0.285367
245.7984	361.0485	454.59	489.0083	508.5167	645.6007	688.8747	719.1258	779.6801	786.0122	836.1665	957.1936	998.5389	1031.3271	1090.9484	1198.3431	1229.8045	1288.7357	1361.828	1390.2178	1482.6912	1486.2698	1536.6897	1615.1524	3252.224	3676.5764	3679.8306
N1C=NC2=C1N=NN2	[nH]1cnc2c1nn[nH]2	
InChI=1S/C3H3N5/c1-4-2-3(5-1)7-8-6-2/h1H,(H2,4,5,6,7,8)	InChI=1S/C3H3N5/c1-4-2-3(5-1)7-8-6-2/h1H,(H2,4,5,6,7,8)
