11
gdb 130251	3.16885	1.54542	1.0408	5.555	56.37	-0.2669	-0.0892	0.1777	1017.0788	0.064803	-525.830197	-525.822714	-525.821769	-525.862727	26.935	
N	 0.1187130049	 1.4107761997	 0.0118990104	-0.547346
C	-0.0566630139	 0.05738338	 0.0033290418	 0.522329
N	-1.2209271015	-0.4556684072	-0.1570559284	-0.218186
O	-1.2692198765	-1.8647610433	-0.3177397174	-0.233317
C	-0.1869231519	-2.6579370564	-0.1591560839	 0.34463
O	-0.2712169619	-3.8433848613	-0.2691089207	-0.276732
C	 1.145963537	-1.975290773	 0.1527417401	 0.303321
O	 2.1581667979	-2.5533156942	 0.3691060933	-0.25313
O	 1.1280786474	-0.5965778884	 0.1469087118	-0.209348
H	 0.8703346558	 1.7498419746	 0.5937438639	 0.281034
H	-0.7369021674	 1.9437765497	 0.0550878991	 0.286744
73.8363	95.685	254.9015	327.5238	355.0594	405.2691	446.9881	477.3884	501.9328	564.5927	620.1933	672.2256	695.9071	802.1603	817.3146	962.7034	1043.1497	1075.3698	1178.7489	1272.0548	1417.0754	1621.1714	1719.4123	1861.2858	1906.4029	3581.0064	3696.0195
NC1=NOC(=O)C(=O)O1	Nc1noc(=O)c(=O)o1	
InChI=1S/C3H2N2O4/c4-3-5-9-2(7)1(6)8-3/h(H2,4,5)	InChI=1S/C3H2N2O4/c4-3-5-9-2(7)1(6)8-3/h(H2,4,5)
