11
gdb 5470	3.76153	1.96987	1.29283	0.7686	64.03	-0.2161	-0.0269	0.1892	847.4663	0.072117	-397.397876	-397.391214	-397.39027	-397.428664	24.694	
O	 0.1266606409	 1.3721898759	 0.0711788081	-0.412466
C	 0.0799398598	 0.0375625567	-0.0086809097	 0.222743
C	 0.0158881848	-0.7281670616	-1.1437323055	 0.108055
O	-0.0124907872	-2.048555627	-0.7027715767	-0.170786
C	 0.0355865689	-1.9681289876	 0.6297201356	 0.070233
N	 0.0918562209	-0.761522908	 1.108824058	-0.331264
C	-0.0217156398	-0.4501249605	-2.5116126404	 0.257151
C	-0.0536936017	-0.1983117103	-3.6897764699	-0.410437
H	 0.1661848717	 1.5981942641	 1.0090025758	 0.311847
H	 0.0238021046	-2.8963021151	 1.179483939	 0.159374
H	-0.0816651329	 0.0283363933	-4.7266426842	 0.19555
141.2593	158.5657	315.9466	372.3129	390.8748	444.2859	510.8054	535.0345	615.6762	647.0815	700.3764	743.6093	744.071	842.5769	956.5378	1068.3489	1162.6839	1197.5187	1316.1965	1324.6846	1424.8436	1541.1669	1693.4803	2228.8698	3275.4153	3502.384	3801.1501
OC1=C(OC=N1)C#C	Oc1c(ocn1)C#C	
InChI=1S/C5H3NO2/c1-2-4-5(7)6-3-8-4/h1,3,7H	InChI=1S/C5H3NO2/c1-2-4-5(7)6-3-8-4/h1,3,7H
