10
gdb 23843	5.97828	1.62718	1.27905	0.537	51.95	-0.2609	-0.1006	0.1603	815.3785	0.061672	-454.765739	-454.759957	-454.759013	-454.795892	21.287	
F	 0.0205151504	 0.041595339	 0.0029291413	-0.047469
C	-0.0382646078	 1.3557843312	 0.0105565701	 0.389529
N	-1.2132111688	 1.8863973699	 0.0292024916	-0.248317
N	-1.2149841484	 3.2346460812	 0.0365906817	-0.260434
C	-0.1059940333	 4.0700916083	 0.0262191991	 0.410699
O	-0.1855328425	 5.2824085158	 0.0343345902	-0.373816
C	 1.1365983696	 3.278548536	 0.0056382215	-0.066704
N	 1.1689111691	 1.9852246416	-0.0019129232	-0.257157
H	-2.1319076468	 3.6626449529	 0.0512829607	 0.290369
H	 2.0727715585	 3.8320453042	-0.003688203	 0.163301
113.4258	347.8561	383.1021	398.06	484.3169	523.494	539.8057	634.309	728.0554	790.095	814.5408	850.7679	978.6418	998.0356	1240.755	1253.7958	1339.2501	1405.2058	1454.0901	1571.2999	1657.3598	1799.2119	3172.5028	3592.7088
FC1=NNC(=O)C=N1	Fc1n[nH]c(=O)cn1	
InChI=1S/C3H2FN3O/c4-3-5-1-2(8)6-7-3/h1H,(H,6,8)	InChI=1S/C3H2FN3O/c4-3-5-1-2(8)6-7-3/h1H,(H,6,8)
