11
gdb 21775	3.95612	2.05161	1.351	1.5987	55.13	-0.2755	-0.0736	0.2019	802.2765	0.074976	-430.783131	-430.777064	-430.776119	-430.813533	22.447	
O	-0.0352801206	-0.0738358922	 0.0036131135	-0.369374
C	-0.0212546422	 1.133340222	 0.0095245786	 0.5096
N	-1.1763268438	 1.9078440803	 0.0288593485	-0.295953
N	-1.2567063021	 3.2511028852	 0.0367625185	-0.126483
C	-0.1555054787	 3.9184381441	 0.0255060439	-0.091742
C	 1.1853608137	 3.305034876	 0.0045837105	 0.416573
O	 2.2317585849	 3.9120773556	-0.0062621864	-0.346716
N	 1.1275458658	 1.9093868759	-0.0017694387	-0.424598
H	-2.055464497	 1.4136542545	 0.0380537722	 0.290746
H	-0.2188266572	 4.9994833147	 0.0318432561	 0.156984
H	 2.0054629072	 1.4058415338	-0.0159941265	 0.280962
149.2979	159.4167	380.4775	412.9931	522.8048	533.4053	556.2422	609.0681	702.3354	742.0751	753.1289	777.6359	907.8515	970.8905	1006.8265	1132.1457	1232.261	1350.2367	1381.4228	1405.742	1456.5381	1649.2068	1810.8919	1844.5555	3220.6142	3600.7502	3641.8983
O=C1NN=CC(=O)N1	O=c1[nH]ncc(=O)[nH]1	
InChI=1S/C3H3N3O2/c7-2-1-4-6-3(8)5-2/h1H,(H2,5,6,7,8)	InChI=1S/C3H3N3O2/c7-2-1-4-6-3(8)5-2/h1H,(H2,5,6,7,8)
