11
gdb 23785	6.10665	1.61015	1.27542	4.8206	56.32	-0.2461	-0.0775	0.1686	839.6824	0.073091	-434.880064	-434.873905	-434.872961	-434.910369	23.134	
N	-0.0115758997	 1.3648452949	 0.1732095826	-0.567269
C	-0.0205520426	-0.005507775	 0.0595403106	 0.391767
C	-1.2149924409	-0.7579858004	 0.0422533922	-0.04589
N	-1.1799548323	-2.073607908	-0.0098411832	-0.271235
C	 0.044005448	-2.5920099481	-0.0342780362	 0.375192
F	 0.1142683266	-3.9078659315	-0.0781167058	-0.054088
N	 1.1951111384	-1.9543674154	-0.0262250648	-0.240595
N	 1.1619516638	-0.6244726091	 0.0136941446	-0.247765
H	 0.8818838485	 1.7886984415	-0.0322121316	 0.268618
H	-0.8047229834	 1.8641816643	-0.1971225802	 0.262055
H	-2.1910250963	-0.2772870333	 0.0694368618	 0.129209
118.1091	325.2144	359.6996	383.2802	435.5669	491.28	519.6164	537.3472	606.4414	664.8223	813.7264	821.24	894.23	952.5857	1056.6553	1088.9578	1178.7326	1316.4768	1372.0365	1422.4398	1486.4699	1563.5539	1615.773	1647.5477	3147.653	3575.1055	3688.6816
NC1=CN=C(F)N=N1	Nc1cnc(F)nn1	
InChI=1S/C3H3FN4/c4-3-6-1-2(5)7-8-3/h1H,(H2,5,7)	InChI=1S/C3H3FN4/c4-3-6-1-2(5)7-8-3/h1H,(H2,5,7)
