11
gdb 24968	5.43202	1.40595	1.11688	5.6647	56.98	-0.2247	-0.0004	0.2243	953.3301	0.068159	-488.72215	-488.715899	-488.714955	-488.753337	23.178	
O	 0.0056388083	 0.0312022649	 0.0029362641	-0.333613
C	-0.0012755947	 1.2136466428	 0.0094789838	 0.462611
O	-1.1827661914	 1.9867443801	 0.0298901721	-0.259143
C	-0.7260084908	 3.2692256028	 0.0305236124	 0.36632
C	 0.6116204323	 3.324700958	 0.0124502335	 0.310538
O	 1.1056454896	 2.032345548	-0.0013130995	-0.246414
N	 1.0977404751	 4.5840549366	 0.0127085277	-0.335864
C	-0.0075356843	 5.3163584913	 0.0317441022	-0.007159
N	-1.171807318	 4.5565847344	 0.0437816152	-0.399705
H	-0.0445749137	 6.3933779001	 0.0380216293	 0.151461
H	-2.1173459922	 4.8994876211	 0.0586416593	 0.290968
62.2005	231.3056	342.9428	365.4754	459.9569	595.1746	618.9901	646.2293	712.4873	744.417	758.5308	776.8882	813.8694	891.1499	968.7195	975.9193	1063.6721	1214.3693	1266.8308	1371.5351	1413.5619	1464.3318	1553.4882	1692.7075	1958.0501	3279.6038	3675.9092
O=C1OC2=C(O1)N=CN2	O=c1oc2c(o1)nc[nH]2	
InChI=1S/C4H2N2O3/c7-4-8-2-3(9-4)6-1-5-2/h1H,(H,5,6)	InChI=1S/C4H2N2O3/c7-4-8-2-3(9-4)6-1-5-2/h1H,(H,5,6)
