10
gdb 21900	3.7981	1.99204	1.3067	5.4018	55.71	-0.2671	-0.0502	0.2169	817.6575	0.062994	-409.652808	-409.646568	-409.645624	-409.683332	22.499	
O	 0.1323793074	 1.3344977081	 0.0370849668	-0.403975
C	 0.0831932588	 0.0019984081	 0.03079051	 0.312845
N	 0.0829342428	-0.7407991972	-1.0679333505	-0.285936
N	 0.0245220178	-1.9851775177	-0.5790965314	-0.078972
N	-0.0124616738	-2.1150851976	 0.7246224527	-0.25018
C	 0.0239546631	-0.845489377	 1.1636125849	 0.16003
C	 0.0030611558	-0.4969030919	 2.5356785448	 0.251702
N	-0.0126284462	-0.1797968286	 3.6482161982	-0.335397
H	 0.1664899647	 1.6437998586	-0.8773312817	 0.320636
H	 0.0097570696	-2.7872563048	-1.1889606138	 0.309247
148.0977	175.5172	336.456	386.9853	398.7054	502.2946	552.4947	564.9355	613.1056	702.5104	762.4715	777.5603	986.456	1144.421	1210.5157	1248.7306	1304.3115	1376.5707	1464.5039	1564.0569	1608.3349	2360.849	3664.7841	3796.5181
OC1=NNN=C1C#N	Oc1n[nH]nc1C#N	
InChI=1S/C3H2N4O/c4-1-2-3(8)6-7-5-2/h(H2,5,6,7,8)	InChI=1S/C3H2N4O/c4-1-2-3(8)6-7-5-2/h(H2,5,6,7,8)
