11
gdb 5649	5.60819	2.2453	1.60337	1.026	57.28	-0.2225	-0.0272	0.1954	701.1534	0.075427	-397.415251	-397.41023	-397.409286	-397.444275	19.772	
O	-0.0156244281	 1.3443013945	 0.0093523526	-0.151634
C	 1.2636309841	 1.8434677647	-0.0000998442	-0.14449
C	 2.0947346543	 0.774546103	-0.013609385	 0.260038
O	 3.4145485252	 0.4207299949	-0.0279642349	-0.221623
C	 3.3503144135	-0.9617717758	-0.0347197622	 0.052133
N	 2.1874118417	-1.5110047454	-0.0264610415	-0.340429
C	 1.3191873459	-0.4136668572	-0.0125234367	 0.183243
C	 0.0146980558	-0.0203966747	 0.0018545274	-0.098917
H	 1.3606776097	 2.9133807745	 0.0046375377	 0.152089
H	 4.3095046271	-1.4582629603	-0.0463989039	 0.157612
H	-0.9403511892	-0.5148474283	 0.0082819607	 0.151977
270.3121	345.4883	497.7929	593.6349	617.4095	682.7033	703.5172	729.6764	743.2379	772.7253	883.1205	908.8951	950.6766	1033.5446	1052.2848	1136.0275	1166.6123	1244.3967	1301.3341	1322.974	1425.1038	1566.3518	1604.3386	1685.5872	3267.4983	3296.8951	3306.318
O1C=C2OC=NC2=C1	o1cc2ocnc2c1	
InChI=1S/C5H3NO2/c1-4-5(2-7-1)8-3-6-4/h1-3H	InChI=1S/C5H3NO2/c1-4-5(2-7-1)8-3-6-4/h1-3H
