11
gdb 21806	6.80831	1.17394	1.08397	1.4196	53.05	-0.2786	-0.0845	0.1941	999.8042	0.070386	-430.666858	-430.659994	-430.65905	-430.699518	22.802	
O	-0.2136219501	 0.0359580555	 0.2720970944	-0.215184
C	-0.0320400556	 1.1893047451	-0.0007557107	 0.156452
C	 1.360809854	 1.7765970063	-0.2556004367	-0.376773
C	 1.3604331414	 2.8279410618	-1.3072936916	 0.395919
N	 1.959667507	 2.7454823971	-2.4614054781	-0.135523
O	 1.6696333761	 3.9119759135	-3.080923503	-0.131636
N	 0.8693234032	 4.6818806477	-2.2440459462	 0.056615
N	 0.6854551366	 4.0324642062	-1.183876486	-0.199595
H	-0.86472694	 1.9218231282	-0.0614519239	 0.112839
H	 1.6880187434	 2.2249710439	 0.6923974004	 0.168747
H	 2.049819904	 0.9708138246	-0.5112657686	 0.16814
46.297	66.075	147.6999	311.7754	388.6435	442.0139	669.7411	689.4059	699.3961	774.27	806.7987	958.8092	1017.6254	1039.5095	1064.3424	1099.639	1197.6153	1285.8623	1315.7182	1420.9005	1439.1605	1480.7739	1597.3354	1845.9562	2914.0926	3035.0443	3141.3175
O=CCC1=NON=N1	O=CCc1nonn1	
InChI=1S/C3H3N3O2/c7-2-1-3-4-6-8-5-3/h2H,1H2	InChI=1S/C3H3N3O2/c7-2-1-3-4-6-8-5-3/h2H,1H2
