11
gdb 132136	3.01549	1.207	0.86198	1.5131	59.98	-0.253	-0.0695	0.1835	1170.9776	0.063899	-533.84994	-533.841851	-533.840907	-533.883636	27.819	
O	-0.3087145334	 1.5130898444	 0.0098446268	-0.364535
C	 0.0452629364	 0.2164063516	 0.0016046273	 0.343265
C	-1.1151628929	-0.684229908	 0.0031897215	 0.132672
F	-2.3164777588	-0.0974222097	 0.0123242076	-0.066394
C	-1.0676720552	-2.0296546358	-0.0036947239	-0.08992
N	 0.0279106765	-2.8425480692	-0.0133955255	-0.376385
C	 1.2417132919	-2.7819798549	-0.0193973929	 0.583752
O	 2.3940117904	-2.9396204183	-0.0261571374	-0.269961
O	 1.1969461729	-0.1636179306	-0.0062439263	-0.355372
H	 0.5187194922	 2.0177483177	 0.008041307	 0.31115
H	-2.0175895099	-2.5549641373	-0.0013533443	 0.151729
70.3027	85.8949	117.7653	228.3671	318.3567	340.9868	370.9922	436.1391	547.7987	587.0045	598.4644	623.366	657.9131	784.6274	789.9551	933.0662	1019.9798	1169.0658	1246.4364	1338.7737	1446.413	1550.951	1686.4885	1793.1988	2363.6054	3186.2392	3756.0954
OC1=C(F)C=NC(=O)O1	OC(=O)C(=CN=C=O)F	
InChI=1S/C4H2FNO3/c5-2-1-6-4(8)9-3(2)7/h1,7H	InChI=1S/C4H2FNO3/c5-3(4(8)9)1-6-2-7/h1H,(H,8,9)
