11
gdb 8613	2.14735	2.13172	1.50442	4.7882	62.83	-0.2934	-0.035	0.2584	872.3975	0.067783	-360.171635	-360.163204	-360.16226	-360.204232	29.87	
O	-0.0732947477	 1.4257930624	 0.0104169746	-0.404458
C	 0.0153380426	 0.0057096517	 0.0019199183	-0.157504
C	 0.6887886744	-0.4878921179	-1.2137377437	 0.343035
C	 1.2613072159	-0.8509169718	-2.2037414253	-0.440163
C	 0.7118274797	-0.5008910331	 1.199113205	 0.343047
C	 1.3030885575	-0.8745026735	 2.1740470349	-0.440159
C	-1.3890881234	-0.4813299015	 0.0126887806	 0.341494
N	-2.470361274	-0.8834874869	 0.020973499	-0.327638
H	 0.8312546387	 1.7635059727	 0.0034609215	 0.301209
H	 1.7604935728	-1.1803306285	-3.0824649199	 0.220569
H	 1.8188782134	-1.2132513634	 3.0395327051	 0.220568
122.1916	122.2546	152.7733	201.3134	240.1924	263.9688	342.8852	503.6859	511.8242	546.6015	571.0036	571.9335	668.8519	670.1142	689.6624	693.1847	695.547	1014.8314	1058.2494	1091.7706	1367.7331	2242.7882	2244.9834	2376.6285	3496.4839	3497.0591	3794.5805
OC(C#C)(C#C)C#N	OC(C#C)(C#C)C#N	
InChI=1S/C6H3NO/c1-3-6(8,4-2)5-7/h1-2,8H	InChI=1S/C6H3NO/c1-3-6(8,4-2)5-7/h1-2,8H
