11
gdb 132000	4.70249	1.15156	0.92503	6.167	56.4	-0.2806	-0.0843	0.1963	1116.1343	0.06692	-521.935832	-521.928825	-521.927881	-521.968189	24.97	
O	 0.2180621685	 1.2610868441	 0.1617752584	-0.410264
C	 0.1098146484	-0.0514898629	-0.0099449658	 0.488784
N	 0.2288312281	-0.7339847434	-1.1266322119	-0.380256
C	 0.0209186898	-1.9994886138	-0.6850645302	 0.449392
N	-0.2147367771	-2.1594026359	 0.5980653549	-0.234651
N	-0.1537246389	-0.8733852441	 1.0300976	-0.241062
N	 0.0542897442	-3.1498928128	-1.5870090672	 0.371843
O	 0.2793205242	-2.912456681	-2.7625117787	-0.338671
O	-0.144998184	-4.2465400435	-1.0902007888	-0.341852
H	 0.4060819505	 1.6537561424	-0.7013611071	 0.3336
H	-0.2961651638	-0.6508001491	 2.0026122764	 0.303138
47.557	175.2698	206.52	360.9514	399.7722	425.9995	439.5718	543.0154	566.5272	669.9761	746.1254	749.097	808.1864	854.8201	1016.0307	1078.2261	1164.9174	1184.784	1347.0924	1359.6219	1417.4077	1483.4301	1568.9754	1647.4443	1660.9887	3657.045	3795.2584
OC1=NC(=NN1)N(=O)=O	Oc1nc(n[nH]1)N(=O)=O	
InChI=1S/C2H2N4O3/c7-2-3-1(4-5-2)6(8)9/h(H2,3,4,5,7)	InChI=1S/C2H2N4O3/c7-2-3-1(4-5-2)6(8)9/h(H2,3,4,5,7)
