11
gdb 133583	2.82439	1.31608	1.11713	3.8311	48.88	-0.3268	-0.0245	0.3024	1018.2698	0.061261	-583.02772	-583.019936	-583.018992	-583.061179	27.017	
F	 0.4270220983	 0.2000147056	 0.026072759	-0.057726
C	-0.0189011668	 1.4502064043	-0.0354795381	 0.299425
F	 0.9893583299	 2.2522720611	-0.3995856842	-0.065399
F	-0.9601540844	 1.5159683497	-0.9839626884	-0.06803
C	-0.5926948076	 1.9265919708	 1.2856376239	-0.119146
O	-1.3404204561	 0.9868994592	 2.0302586376	-0.20769
C	-0.1096042875	 1.4494409466	 2.595406838	-0.091334
C	 0.9611503556	 0.4900384034	 2.7582521294	 0.32119
N	 1.829658678	-0.2429316346	 2.9632230914	-0.313923
H	-1.0082384435	 2.9316952345	 1.2233012021	 0.144516
H	-0.2228396359	 2.1229287494	 3.4431963694	 0.158117
42.1701	118.8084	179.3125	238.1959	255.7621	363.8645	421.1187	524.9606	531.1037	563.0641	625.4483	707.7132	790.2301	875.0023	916.7117	1011.1198	1091.7201	1135.9832	1196.869	1209.209	1262.7375	1319.583	1390.1076	1478.3686	2370.6595	3130.4029	3140.0728
FC(F)(F)C1OC1C#N	FC(F)(F)[C@H]1O[C@H]1C#N	
InChI=1S/C4H2F3NO/c5-4(6,7)3-2(1-8)9-3/h2-3H	InChI=1S/C4H2F3NO/c5-4(6,7)3-2(1-8)9-3/h2-3H/t2-,3-/m0/s1
