11
gdb 129811	3.70851	1.66608	1.15067	4.8827	61.76	-0.2312	-0.084	0.1472	929.6429	0.066324	-484.780163	-484.773562	-484.772618	-484.811023	25.064	
N	 0.0425641983	 1.4016698922	 0.1967612826	-0.599528
C	-0.0840170906	 0.0466979418	 0.0685249127	 0.348362
C	-1.1264337687	-0.8402361032	 0.0436009528	 0.194477
O	-2.4566545716	-0.9909640744	 0.0545436005	-0.281748
N	-2.6214797012	-2.4836208615	-0.0175052363	 0.012474
N	-1.515095146	-3.0408956138	-0.0592644338	-0.176273
C	-0.5026534454	-2.0890034635	-0.0272368669	 0.397427
N	 0.8130288554	-2.0723331134	-0.046597064	-0.250449
O	 1.0589696635	-0.6785914892	 0.01418914	-0.205268
H	 0.9354715953	 1.770836519	-0.0984129022	 0.279768
H	-0.7443873091	 1.940276386	-0.1331125353	 0.28076
186.3005	228.2886	280.4651	302.7098	415.1686	440.6674	551.5743	585.4804	609.16	635.4305	653.4611	697.4279	766.5268	829.2486	920.9283	971.377	1031.311	1165.8356	1295.0162	1385.5172	1427.715	1526.8991	1593.0054	1635.2887	1727.6862	3571.5978	3678.6749
NC1=C2ON=NC2=NO1	Nc1c2onnc2no1	
InChI=1S/C3H2N4O2/c4-2-1-3(6-9-2)5-7-8-1/h4H2	InChI=1S/C3H2N4O2/c4-2-1-3(6-9-2)5-7-8-1/h4H2
