10
gdb 130567	3.74301	1.31377	0.97245	2.8012	61.03	-0.329	-0.1419	0.187	1064.1902	0.054259	-467.601622	-467.594571	-467.593627	-467.634195	23.812	
O	 0.0323608689	-0.0591043893	 0.0027599446	-0.231598
C	-0.0507433475	 1.1405957413	 0.0073145287	 0.209668
C	 1.1439089207	 1.9988468576	 0.0015298673	 0.264809
N	 2.1052247563	 2.6402512465	-0.0032757936	-0.293417
C	-1.3513462017	 1.8586839249	 0.01890075	 0.37933
N	-2.5439650381	 1.341628489	 0.0257825492	-0.283832
C	-3.3261080453	 2.4637967963	 0.0348344567	 0.046557
N	-2.6692454442	 3.5986879096	 0.0340312594	-0.07898
O	-1.3425115435	 3.1992966972	 0.0230795824	-0.185859
H	-4.4057870156	 2.440891547	 0.0425580752	 0.173323
58.2607	120.1756	180.1551	248.6388	304.4889	446.4401	489.7281	652.9952	666.9246	671.8417	814.5794	934.912	937.4263	978.0252	980.2379	1092.0249	1195.356	1262.5945	1310.7519	1462.6206	1601.8703	1788.5288	2348.1179	3270.4534
O=C(C#N)C1=NC=NO1	O=C(C#N)c1ncno1	
InChI=1S/C4HN3O2/c5-1-3(8)4-6-2-7-9-4/h2H	InChI=1S/C4HN3O2/c5-1-3(8)4-6-2-7-9-4/h2H
