11
gdb 20533	5.19783	1.76925	1.33077	3.9923	53.44	-0.3139	-0.1012	0.2127	829.2697	0.071038	-426.862604	-426.855828	-426.854883	-426.894295	22.864	
C	-0.0488664267	 1.5129950467	 0.0099878898	-0.489032
C	 0.1124893436	 0.0210200698	 0.0012952321	 0.450626
O	 1.126568127	-0.6028622842	-0.0104497272	-0.236831
N	-1.1593381683	-0.7041695385	 0.0087936044	 0.055639
N	-2.361667289	-0.1209540898	 0.0220183294	-0.10079
N	-3.2110499365	-1.0845251624	 0.0247262865	-0.070397
N	-2.5319585614	-2.2711080232	 0.0130984914	-0.063562
N	-1.2689997097	-2.0357423248	 0.0033289197	-0.070324
H	 0.9440212738	 1.9606343952	 0.0034332133	 0.166877
H	-0.6215031773	 1.84082949	-0.8619223969	 0.178896
H	-0.6059975556	 1.8322361611	 0.8950391875	 0.178899
71.1204	138.6892	168.2836	216.4203	380.9467	490.7258	574.509	630.8191	717.5827	758.3865	890.9718	967.0947	1060.9154	1086.3485	1104.0836	1138.5145	1178.3954	1250.0651	1353.2545	1399.7379	1425.5305	1456.9165	1467.3572	1887.7022	3062.2675	3129.2397	3176.2078
CC(=O)N1N=NN=N1	CC(=O)n1nnnn1	
InChI=1S/C2H3N5O/c1-2(8)7-5-3-4-6-7/h1H3	InChI=1S/C2H3N5O/c1-2(8)7-5-3-4-6-7/h1H3
