10
gdb 133480	3.62383	1.20407	1.07365	2.0032	45.55	-0.3411	-0.0737	0.2673	1015.8588	0.05071	-599.059501	-599.0526	-599.051655	-599.092917	23.937	
F	-0.6260988684	 0.2775294131	-0.4751499925	-0.046301
C	-0.0295032326	 1.351555475	 0.027740453	 0.251491
F	 1.2581737871	 1.0607987799	 0.2621403295	-0.071067
F	-0.0602079813	 2.3215277369	-0.8943899251	-0.062789
C	-0.6806759043	 1.8084124067	 1.3023911695	 0.179889
N	-1.9059582349	 1.494160825	 1.6190778076	-0.133658
O	-2.1370973736	 2.1018237688	 2.8112771014	-0.134371
N	-1.0434772788	 2.8009529093	 3.2438244875	-0.049761
C	-0.1354156418	 2.6305703126	 2.3246341153	-0.107954
H	 0.8446498588	 3.0721869929	 2.4080410638	 0.174522
17.1701	153.1297	177.77	368.9113	400.0369	408.2252	557.8431	582.5759	655.85	744.6289	753.0827	887.3002	904.3146	944.7572	1006.2976	1056.9436	1138.5792	1191.95	1229.6301	1264.4274	1443.1244	1475.1532	1616.0059	3281.2377
FC(F)(F)C1=NON=C1	FC(F)(F)c1nonc1	
InChI=1S/C3HF3N2O/c4-3(5,6)2-1-7-9-8-2/h1H	InChI=1S/C3HF3N2O/c4-3(5,6)2-1-7-9-8-2/h1H
