11
gdb 21330	6.09587	1.30271	1.20057	4.449	56.77	-0.2968	-0.0602	0.2366	933.5945	0.072288	-393.56648	-393.559833	-393.558888	-393.59844	22.85	
N	-0.110934019	-1.1824409691	 0.4156394539	-0.284082
C	-0.0505014373	-0.0436461653	 0.2371072301	 0.274995
C	 0.0129896987	 1.4020355724	 0.0030633163	-0.440287
C	 1.4150691406	 1.9208774125	-0.0796583721	 0.418491
C	 2.1393431916	 2.4688502058	-1.0903420505	-0.198523
N	 3.3715015199	 2.7836506784	-0.5672333454	-0.096876
N	 3.4360339853	 2.4732897679	 0.6455243339	 0.008456
O	 2.1661172516	 1.899178188	 1.0172903819	-0.207081
H	-0.5107110583	 1.6338979445	-0.9291522267	 0.181573
H	-0.5226020884	 1.9121083887	 0.8122737743	 0.190135
H	 1.8850680054	 2.6550291561	-2.1194972155	 0.153199
41.6882	106.8281	279.9811	303.0351	374.7697	472.7405	610.886	655.8571	699.5853	784.5881	832.9723	933.4428	943.1149	987.2068	1050.8055	1117.4141	1212.7763	1247.1407	1336.1649	1389.6999	1450.8098	1466.3653	1612.5219	2374.6259	3050.7711	3100.8574	3293.9903
N#CCC1=CN=NO1	N#CCc1cnno1	
InChI=1S/C4H3N3O/c5-2-1-4-3-6-7-8-4/h3H,1H2	InChI=1S/C4H3N3O/c5-2-1-4-3-6-7-8-4/h3H,1H2
