11
gdb 130619	2.6901	1.71611	1.04773	0.7936	64.96	-0.2839	-0.1337	0.1502	1002.5021	0.063403	-488.589334	-488.582014	-488.581069	-488.622741	25.826	
O	-0.0374406461	 0.3380012321	 1.1025180133	-0.260766
C	-0.0120832677	 1.2225725291	 0.2828204752	 0.260118
C	-1.2904036098	 1.7274751237	-0.278806935	-0.02967
N	-1.644807592	 2.6155228227	-1.1286271855	-0.02983
O	-0.8138790858	 3.454298151	-1.8462891724	-0.22697
N	 0.5624301761	 3.5753207294	-1.8584550868	-0.029829
C	 1.39859443	 2.8965052818	-1.1681909951	-0.029671
C	 1.3321208534	 1.8065526904	-0.1621896819	 0.260117
O	 2.3558667727	 1.3772010069	 0.3096316973	-0.260766
H	-2.1489426405	 1.2060061198	 0.1426726955	 0.173633
H	 2.4264472598	 3.1952372831	-1.3705338646	 0.173633
24.636	77.5481	331.5773	348.9479	350.0718	351.1622	426.3822	521.4831	602.7809	604.1289	699.0356	789.4778	807.483	811.0538	938.5989	939.6976	955.0806	1133.5323	1270.9834	1327.2199	1360.7253	1638.773	1643.8379	1780.8378	1788.151	3153.7126	3153.9445
O=C1C=NON=CC1=O	O=c1cnoncc1=O	
InChI=1S/C4H2N2O3/c7-3-1-5-9-6-2-4(3)8/h1-2H	InChI=1S/C4H2N2O3/c7-3-1-5-9-6-2-4(3)8/h1-2H
