11
gdb 133400	2.34853	1.86164	1.03847	2.1567	59.52	-0.2522	-0.0825	0.1696	992.1685	0.063822	-537.893132	-537.886103	-537.885159	-537.924987	25.738	
F	 0.009360664	 0.0282926596	 0.063360012	-0.037669
C	-0.0428713328	 1.3510827006	 0.0624947338	 0.136403
C	-1.196433074	 2.0343674474	-0.0376596465	 0.095739
F	-2.3643342925	 1.4434244607	-0.1426995385	-0.012761
C	-1.1732114002	 3.4909041523	-0.0314751462	 0.327907
N	-2.2224376121	 4.1886346012	-0.1223432454	-0.514708
O	 0.0864385445	 4.0751033652	 0.0816750209	-0.290531
N	 1.2765691585	 3.3661298222	 0.1849927481	-0.049806
C	 1.1881277293	 2.0836850529	 0.1735203629	-0.061857
H	-2.0048092176	 5.1852422292	-0.1002485692	 0.241816
H	 2.1270749529	 1.5455761686	 0.2550902481	 0.165468
104.5512	162.1189	275.8427	289.6009	320.139	470.1556	514.2624	517.1759	550.7744	632.965	676.2559	726.3411	846.712	868.5149	903.3312	928.9752	991.935	1131.1935	1235.4931	1271.758	1375.4751	1401.7257	1632.8497	1740.3092	1751.9197	3196.2733	3498.1593
FC1=C(F)C(=N)ON=C1	F[C]1C(=C([NH])ON=C1)F	
InChI=1S/C4H2F2N2O/c5-2-1-8-9-4(7)3(2)6/h1,7H	InChI=1S/C4H2F2N2O/c5-2-1-8-9-4(7)3(2)6/h1,7H
