10
gdb 21325	6.17342	1.67668	1.31856	5.4057	61.34	-0.2694	-0.1043	0.1652	819.8218	0.062332	-372.510103	-372.504245	-372.503301	-372.540299	20.787	
N	 0.0216362286	-1.1256635018	-0.0031260153	-0.306331
C	 0.0015969204	 0.0294319211	 0.0028731088	 0.310858
C	-0.032172146	 1.4720351388	 0.0103176454	 0.285512
N	-1.239067005	 2.0538813458	 0.0299323393	-0.252535
C	-1.2049872193	 3.3774982365	 0.037218906	-0.007043
C	 0.0148528484	 4.0570491339	 0.025078781	 0.033015
N	 1.1767978802	 3.4066223368	 0.0061031826	-0.159132
N	 1.1599403699	 2.0804197608	-0.001390262	-0.206037
H	-2.1550480579	 3.9050521276	 0.052751472	 0.151282
H	 0.0730624209	 5.1403074005	 0.0305500121	 0.150413
132.1613	176.4458	334.5819	382.2128	513.4247	568.0389	599.3188	652.5506	826.7802	838.4617	901.1573	1021.3447	1033.3059	1081.4137	1125.6445	1178.8336	1300.9905	1370.9752	1441.5859	1562.8025	1579.9269	2367.1683	3171.0195	3200.4081
N#CC1=NC=CN=N1	N#Cc1nccnn1	
InChI=1S/C4H2N4/c5-3-4-6-1-2-7-8-4/h1-2H	InChI=1S/C4H2N4/c5-3-4-6-1-2-7-8-4/h1-2H
