11
gdb 132141	3.13942	1.47044	1.0014	2.0755	60.88	-0.2345	-0.0872	0.1473	1028.5983	0.064291	-533.824229	-533.817196	-533.816251	-533.855893	26.197	
O	 0.0425855768	 1.3365341298	 0.0078556236	-0.372359
C	-0.0330461061	 0.0103067634	 0.0009502641	 0.330986
C	-1.2028257028	-0.6957000077	 0.0034901279	 0.172652
F	-2.3703371126	-0.0576478421	 0.0134654226	-0.058021
N	-1.2084335382	-2.0265526112	-0.0036035011	-0.228555
C	-0.089723192	-2.6935295719	-0.0134406831	-0.153142
C	 1.2183406416	-2.0710283203	-0.0180777216	 0.391433
O	 2.3103018793	-2.554926183	-0.0253864176	-0.313276
O	 1.1297955977	-0.6322546726	-0.009172122	-0.24628
H	 0.9764293607	 1.5906663057	 0.0040463742	 0.324492
H	-0.1144896043	-3.7774366302	-0.0186014271	 0.15207
109.5283	194.2445	290.4641	351.6951	369.1683	404.318	460.8335	480.8058	517.2659	616.6888	679.0981	714.5686	751.2424	794.2244	837.7443	879.4952	1043.5598	1169.7131	1273.8656	1337.5692	1408.6561	1447.6863	1537.4549	1706.067	1870.5615	3199.059	3774.8744
OC1=C(F)N=CC(=O)O1	Oc1c(F)ncc(=O)o1	
InChI=1S/C4H2FNO3/c5-3-4(8)9-2(7)1-6-3/h1,8H	InChI=1S/C4H2FNO3/c5-3-4(8)9-2(7)1-6-3/h1,8H
