11
gdb 132236	2.09514	1.86075	0.9855	1.3259	55.49	-0.2842	-0.0507	0.2335	1039.4127	0.066126	-533.875351	-533.868561	-533.867617	-533.907056	24.957	
F	 0.1113781475	 0.0900790875	 0.0020189985	-0.018827
C	-0.0618112528	 1.3842839955	 0.0113646203	 0.442719
C	-1.2601490743	 1.9779424163	 0.0312015431	-0.485407
C	-1.3058327643	 3.4300203152	 0.0395920852	 0.471986
O	-2.2932526991	 4.1260168415	 0.0570867415	-0.352486
N	-0.0189590164	 4.0205036661	 0.0248647664	-0.447121
C	 1.199007207	 3.3992610256	 0.0045900479	 0.512236
O	 2.2691278548	 3.9232287768	-0.0073491228	-0.336599
O	 1.1235637059	 2.0011331839	-0.0018460683	-0.229513
H	-2.1755133703	 1.4076806756	 0.0408958698	 0.155071
H	 0.004964602	 5.0316481559	 0.0300043884	 0.287941
135.1573	161.7069	191.1327	361.746	388.7031	493.3232	510.7041	616.9626	655.7035	655.7134	694.3444	732.2933	760.262	831.3858	909.6225	972.1382	1031.1895	1177.9268	1242.599	1352.2626	1398.1394	1417.9046	1723.8363	1822.6933	1910.1671	3266.2882	3612.0281
FC1=CC(=O)NC(=O)O1	Fc1cc(=O)[nH]c(=O)o1	
InChI=1S/C4H2FNO3/c5-2-1-3(7)6-4(8)9-2/h1H,(H,6,7,8)	InChI=1S/C4H2FNO3/c5-2-1-3(7)6-4(8)9-2/h1H,(H,6,7,8)
