10
gdb 23678	3.85736	1.93368	1.28801	1.1173	51.49	-0.2747	-0.0651	0.2096	800.8427	0.060907	-462.759686	-462.754119	-462.753175	-462.789643	20.673	
F	 0.0308729812	 0.0595636797	 0.0030879795	-0.052613
C	-0.0074444163	 1.3810880539	 0.0104085029	 0.31322
C	-1.2376936429	 2.0357537874	 0.0306688363	-0.132657
N	-1.2829607147	 3.3663940737	 0.0381105798	-0.20268
C	-0.1265191128	 4.0260814188	 0.025592372	-0.132656
C	 1.0763056388	 3.3222889054	 0.0054405733	 0.31322
F	 2.2213418772	 3.9831129261	-0.0069047323	-0.052613
N	 1.1494029171	 2.0083317331	-0.0022912697	-0.333593
H	-2.1688053876	 1.4801664449	 0.0406143908	 0.140186
H	-0.14216155	 5.1102712971	 0.0313689174	 0.140186
207.5253	250.0114	348.0359	500.6753	505.5665	546.847	597.5682	686.6853	740.9303	767.1772	891.3362	937.0282	1021.6995	1056.4289	1184.3537	1251.0319	1294.5765	1364.7607	1460.2852	1502.7506	1605.8209	1621.0983	3194.5191	3198.522
FC1=CN=CC(F)=N1	Fc1cncc(F)n1	
InChI=1S/C4H2F2N2/c5-3-1-7-2-4(6)8-3/h1-2H	InChI=1S/C4H2F2N2/c5-3-1-7-2-4(6)8-3/h1-2H
