11
gdb 23881	3.54769	1.41404	1.24023	3.5023	40.99	-0.2799	-0.0516	0.2283	922.4261	0.065931	-566.03606	-566.02789	-566.026945	-566.071016	26.997	
O	 0.0259957922	 1.4117145525	 0.0114549423	-0.396325
C	-0.0197497948	 0.0131682133	 0.0045868071	-0.183293
C	-1.4690897079	-0.4355903715	 0.0116812984	 0.23881
O	-2.4230534992	 0.286860535	 0.0215765575	-0.247434
C	-1.6512114926	-1.9806496473	 0.004925712	 0.220121
F	-2.9276525342	-2.3212094886	 0.0114968834	-0.04078
F	-1.0675411863	-2.5067486226	-1.085177224	-0.078684
F	-1.0534124597	-2.5178953024	 1.0818562688	-0.078684
H	 0.9491029665	 1.6812176004	 0.0068814845	 0.300315
H	 0.4550083837	-0.4370405575	-0.8836973185	 0.132976
H	 0.4664475923	-0.4460848612	 0.8819866584	 0.132977
10.52	85.7189	177.6419	207.7771	239.0269	296.1587	349.9053	417.9147	491.9227	568.7891	606.1481	712.0379	794.7315	1004.228	1009.5184	1143.6118	1173.9422	1220.3934	1249.7668	1249.9763	1324.1691	1444.7536	1495.8952	1870.1107	2966.79	2990.3834	3838.6407
OCC(=O)C(F)(F)F	OCC(=O)C(F)(F)F	
InChI=1S/C3H3F3O2/c4-3(5,6)2(8)1-7/h7H,1H2	InChI=1S/C3H3F3O2/c4-3(5,6)2(8)1-7/h7H,1H2
