11
gdb 21617	7.43451	1.37736	1.16277	2.9842	61.54	-0.2468	-0.0326	0.2142	935.297	0.07236	-393.552184	-393.545393	-393.544449	-393.582962	25.178	
N	-0.0032914456	 1.3378926629	 0.1295285428	-0.608497
C	-0.0498798866	-0.0129165937	 0.0439819461	 0.48195
N	-1.1059253986	-0.7787559266	 0.0445278186	-0.379546
C	-0.5284036397	-2.0293599738	 0.0010851891	 0.21443
N	 0.7862215415	-2.0483871484	-0.0299300251	-0.193124
O	 1.1138823284	-0.6741869405	-0.0005663739	-0.196638
C	-1.2822462203	-3.2314967868	-0.0125504926	 0.26729
C	-1.9291864678	-4.2436613795	-0.0240012049	-0.353231
H	 0.8450600979	 1.7891734924	-0.1722213836	 0.279567
H	-0.8640274624	 1.8169423068	-0.079806978	 0.284528
H	-2.4990293468	-5.1401407328	-0.0335295485	 0.203272
142.3711	151.6883	298.3507	357.7786	399.6232	448.5923	463.333	555.4407	572.4437	641.6995	677.1214	730.1278	773.4583	787.4975	916.9149	1010.6807	1040.2552	1123.4472	1347.3194	1424.1137	1528.8606	1599.3221	1689.6838	2254.4814	3502.2975	3604.3323	3721.049
NC1=NC(=NO1)C#C	Nc1nc(no1)C#C	
InChI=1S/C4H3N3O/c1-2-3-6-4(5)8-7-3/h1H,(H2,5,6,7)	InChI=1S/C4H3N3O/c1-2-3-6-4(5)8-7-3/h1H,(H2,5,6,7)
