11
gdb 23823	3.9581	2.00467	1.3307	2.0856	57.23	-0.2381	-0.0807	0.1573	806.5183	0.074008	-434.875071	-434.869064	-434.86812	-434.905509	22.309	
F	 0.0021809761	 0.0741570436	 0.0035982051	-0.050967
C	-0.0516487606	 1.3954069992	 0.0113840324	 0.326634
N	-1.196850184	 1.9574970705	 0.0298720513	-0.355814
C	-1.226473976	 3.3547363388	 0.0374466149	 0.4462
N	-2.2540525436	 4.1018845223	 0.0556792816	-0.552372
N	 0.039025484	 3.9804665815	 0.0234089555	-0.229663
N	 1.2150919338	 3.3820389638	 0.0042897079	-0.107451
C	 1.2108237342	 2.0810207523	-0.0023928179	-0.149827
H	-3.0928921029	 3.5254332862	 0.0643142203	 0.233673
H	 0.0514058855	 4.99081201	 0.028559111	 0.290096
H	 2.1578755835	 1.5598427417	-0.0180736021	 0.149491
110.5001	222.0741	358.868	423.2167	499.5807	551.681	574.0829	673.15	720.6313	754.7639	760.7877	832.5504	847.2821	968.3881	1006.9755	1129.7971	1191.803	1269.818	1332.7482	1432.1849	1446.8784	1575.048	1688.9624	1743.9122	3233.173	3524.6399	3612.3902
FC1=NC(=N)NN=C1	Fc1nc([NH])[nH]nc1	
InChI=1S/C3H3FN4/c4-2-1-6-8-3(5)7-2/h1H,(H2,5,7,8)	InChI=1S/C3H8FN4/c4-2-1-6-8-3(5)7-2/h2-3,5-8H,1H2
