11
gdb 133618	3.58914	0.92948	0.85319	2.1486	49.58	-0.318	-0.1058	0.2122	1241.5217	0.060286	-583.068038	-583.05963	-583.058686	-583.102647	28.322	
F	-0.015327371	 0.0804782152	-0.139217947	-0.067462
C	-0.0373071993	 1.4089930617	-0.0132639751	 0.299073
F	 1.2107093399	 1.8652678938	-0.1387675542	-0.06758
F	-0.7605256019	 1.906085493	-1.0278991425	-0.075075
C	-0.6608576389	 1.837100192	 1.3072037683	-0.459431
C	 0.080619675	 1.3286724791	 2.5281472704	 0.291521
O	 1.0692624161	 0.6472908946	 2.5162850851	-0.241031
C	-0.5298625115	 1.7522479586	 3.8069168257	 0.23945
N	-1.0190018327	 2.0919059367	 4.7978603093	-0.281787
H	-0.7030547861	 2.9312713409	 1.3432244217	 0.18112
H	-1.6966761697	 1.4819814842	 1.3437796683	 0.181202
36.604	90.1396	117.7365	182.8757	265.2052	322.4954	340.983	400.2107	524.0234	531.2059	595.6464	613.6101	666.8953	850.3512	870.9297	929.4506	1060.8586	1137.465	1200.0914	1274.1425	1308.1697	1391.0933	1434.3945	1815.5726	2340.1616	3059.6544	3102.6259
FC(F)(F)CC(=O)C#N	FC(F)(F)CC(=O)C#N	
InChI=1S/C4H2F3NO/c5-4(6,7)1-3(9)2-8/h1H2	InChI=1S/C4H2F3NO/c5-4(6,7)1-3(9)2-8/h1H2
