11
gdb 5660	5.57876	2.35948	1.65817	2.5917	56.85	-0.2204	-0.0135	0.2069	683.9873	0.076557	-393.611905	-393.606784	-393.60584	-393.641016	19.802	
N	-0.0413826391	 1.3541025412	 0.0102518585	-0.383443
C	 1.2874670657	 1.7362938687	-0.0008112243	-0.002643
N	 2.1418015748	 0.7210139331	-0.0147203373	-0.347837
C	 1.3057558759	-0.3417194113	-0.0122341705	 0.345737
C	-0.0178489217	-0.0204057576	 0.0025689344	 0.315722
N	-0.8088180758	-1.1434866144	 0.0042400977	-0.353129
C	 0.0874639308	-2.0917008954	-0.0097475284	 0.0457
O	 1.4051141819	-1.7006935057	-0.0206146821	-0.196435
H	-0.8370751812	 1.9689698306	 0.0214949797	 0.279795
H	 1.5697983595	 2.7778422446	 0.0020439418	 0.141681
H	-0.0857515509	-3.1555901839	-0.0138239195	 0.154853
217.1692	366.1192	474.8991	495.6601	629.9935	656.948	714.7277	765.8132	767.2925	781.4405	810.994	922.2508	979.1558	1066.3942	1086.8542	1166.6573	1256.469	1302.9484	1373.9841	1433.4804	1458.4263	1501.3191	1542.9869	1605.4897	3263.3389	3287.159	3676.8593
N1C=NC2=C1N=CO2	[nH]1cnc2c1nco2	
InChI=1S/C4H3N3O/c1-5-3-4(6-1)8-2-7-3/h1-2H,(H,5,6)	InChI=1S/C4H3N3O/c1-5-3-4(6-1)8-2-7-3/h1-2H,(H,5,6)
