11
gdb 129149	2.7879	0.80912	0.68744	3.345	66.9	-0.2736	-0.0779	0.1957	1517.0218	0.059419	-447.771635	-447.760747	-447.759803	-447.812352	32.206	
N	 0.1885693715	 0.9809968584	-0.8194682061	-0.468102
C	-0.6874155506	 0.2416626405	-0.474459668	 0.442311
N	 2.3015975352	-0.7741993435	 1.1021824102	-0.014159
N	 2.7788109708	-1.7301940623	 1.3565849764	 0.014064
O	-0.1677351293	-2.5095091643	-0.2571005064	-0.269123
C	-1.2935498453	-2.0880275225	-0.1584336914	 0.116909
C	-1.6581605299	-0.648327169	-0.2339683504	-0.149241
C	-2.9992954697	-0.2258952222	-0.0337272449	 0.218698
N	-4.1055752781	 0.0725461288	 0.1382458265	-0.320491
H	 0.8381255647	 1.4349727183	-0.1838382284	 0.316473
H	-2.1684101293	-2.7478478321	 0.0032301425	 0.112662
12.3742	35.929	45.2179	51.9347	82.2007	130.4455	153.5523	160.8904	230.3217	424.8464	471.0047	543.5595	582.3657	624.9516	699.2134	804.5048	822.0756	1027.4153	1176.8445	1347.6745	1430.0316	1781.6573	2166.1641	2340.4119	2435.0225	2945.3663	3556.1419	12.3739	35.9289	45.2192	51.9366	82.2016	130.4461	153.5517	160.8902	230.3213	424.8465	471.0044	543.5595	582.3654	624.9516	699.2137	804.5051	822.0759	1027.4162	1176.8443	1347.6748	1430.0327	1781.6577	2166.1633	2340.4113	2435.0226	2945.3666	3556.142
N=C1N=NOC=C1C#N	[NH][C][C](C=O)C#N.N#N	
InChI=1S/C4H2N4O/c5-1-3-2-9-8-7-4(3)6/h2,6H	InChI=1S/C4H2N2O.N2/c5-1-4(2-6)3-7;1-2/h3,5H;
