11
gdb 5446	3.77342	1.98331	1.30132	5.7351	60.12	-0.23	-0.0153	0.2147	835.9509	0.073974	-393.625264	-393.618652	-393.617708	-393.656084	24.064	
N	 0.0964877086	 1.360092418	-0.1774503854	-0.600021
C	-0.0323946686	 0.0104128082	-0.0619804798	 0.334367
C	-1.1068467775	-0.8464007402	-0.008208393	 0.09201
N	-0.623816428	-2.1604985257	 0.0215110301	-0.289645
C	 0.6503468398	-2.0368154609	-0.0072514834	 0.058582
O	 1.0949985042	-0.7319064645	-0.0603962389	-0.169309
C	-2.468727782	-0.4806152699	 0.0223553073	 0.197159
N	-3.5685798828	-0.1140613156	 0.0503760499	-0.35136
H	 0.9503185518	 1.7578829526	 0.1848599341	 0.277118
H	-0.7341512293	 1.8911190086	 0.0389242227	 0.286943
H	 1.4136089638	-2.7968795707	 0.0073430864	 0.164155
136.9683	167.8173	279.3471	303.6461	382.47	522.0169	537.6072	555.2494	609.1882	655.4485	744.5603	757.3976	795.0505	941.0643	1022.1689	1077.3022	1169.0075	1270.5751	1316.0414	1460.703	1584.8222	1611.6184	1680.4896	2335.7131	3293.6408	3576.3512	3684.5742
NC1=C(N=CO1)C#N	Nc1c(nco1)C#N	
InChI=1S/C4H3N3O/c5-1-3-4(6)8-2-7-3/h2H,6H2	InChI=1S/C4H3N3O/c5-1-3-4(6)8-2-7-3/h2H,6H2
