11
gdb 123310	6.69625	0.95881	0.83872	1.5532	76.86	-0.2718	-0.0717	0.2001	1250.4222	0.064271	-414.333089	-414.325631	-414.324687	-414.365212	27.185	
C	 0.0714214992	-1.1672948696	-0.0046196038	-0.320917
C	-0.0117142299	 0.0312133131	 0.0029751373	 0.223678
C	-0.0942255091	 1.4392604794	 0.0117068218	 0.274941
N	-1.1572118535	 2.1902176962	 0.0303329255	-0.343029
C	-0.6125344055	 3.456421575	 0.0298297208	 0.175996
N	 0.7058233366	 3.4824691658	 0.0125794235	-0.148219
O	 1.0573966088	 2.1444049918	 0.0004124749	-0.186571
C	-1.3890043897	 4.6415420213	 0.04704699	 0.233991
C	-2.0521714063	 5.6427876399	 0.0616961455	-0.332052
H	 0.1388288427	-2.2281926212	-0.0112624605	 0.215618
H	-2.6387665933	 6.5286899384	 0.074648305	 0.206563
110.4295	116.6616	195.9476	208.2803	410.6183	473.8464	478.5883	527.3325	582.5816	649.2696	661.4009	683.7071	692.2941	698.3005	732.9967	783.2949	961.594	1014.5231	1059.6055	1250.4095	1341.1413	1493.4912	1577.2187	2253.6553	2257.9084	3496.2958	3500.3284
C#CC1=NC(=NO1)C#C	C#Cc1nc(no1)C#C	
InChI=1S/C6H2N2O/c1-3-5-7-6(4-2)9-8-5/h1-2H	InChI=1S/C6H2N2O/c1-3-5-7-6(4-2)9-8-5/h1-2H
