11
gdb 130788	3.87477	1.23063	0.93399	4.6706	71.21	-0.2843	-0.1215	0.1628	1120.4014	0.063522	-451.484108	-451.476729	-451.475785	-451.516286	26.845	
O	-0.0083842748	-0.0780930852	 0.0032282739	-0.324285
C	 0.0148545254	 1.1211726157	 0.0088216173	 0.491479
O	-1.1808837756	 1.8202640676	 0.0288344602	-0.256223
N	-1.2449385545	 3.2574556737	 0.0367308063	 0.064387
N	-0.202962139	 3.9114733319	 0.025443801	-0.158605
C	 1.0738720903	 3.3072895238	 0.0048414952	 0.205518
C	 1.1998874917	 1.9621358065	-0.0035050522	-0.331258
C	 2.1662080227	 4.2106982649	-0.0060179927	 0.270648
C	 3.0957527758	 4.9737884751	-0.0152604081	-0.345189
H	 2.1641285802	 1.4711521768	-0.0193295209	 0.159553
H	 3.9149059177	 5.6513890892	-0.02330497	 0.223976
117.4642	129.6196	145.716	297.3797	376.6453	447.4739	469.021	515.4828	547.1343	665.1366	683.7427	708.6749	730.2109	756.596	758.6465	887.7082	926.9811	970.0091	1171.6778	1209.3164	1308.1963	1597.7223	1650.897	1846.0698	2239.3662	3230.9065	3495.2273
O=C1ON=NC(=C1)C#C	O=C1O[N]N=C([CH]1)C#C	
InChI=1S/C5H2N2O2/c1-2-4-3-5(8)9-7-6-4/h1,3H	InChI=1S/C5H2N2O2/c1-2-4-3-5(8)9-7-6-4/h1,3H
