11
gdb 130613	3.07006	1.57111	1.18168	2.4144	61.89	-0.2916	-0.1332	0.1584	956.1544	0.064582	-488.652409	-488.645349	-488.644405	-488.684584	25.19	
O	 0.1837400337	 0.0116176448	 0.4387469319	-0.288503
C	 0.0567006807	 1.1382131536	 0.0124095167	 0.305129
C	-1.2913096832	 1.6716543488	-0.3388594332	-0.04539
N	-1.7107888156	 2.7925256805	-0.8074291117	-0.026928
O	-0.8641587707	 3.7192684521	-1.3639421116	-0.232877
C	 0.4407589035	 3.3673384654	-1.7852740748	 0.449486
O	 0.7248877344	 3.4779101159	-2.9325968957	-0.254673
N	 1.3438103998	 3.0856776496	-0.7685365677	-0.197851
C	 1.2114314182	 2.0952026673	 0.0131554114	-0.046557
H	-2.1017908927	 1.0218740582	-0.014899652	 0.168146
H	 1.9877861017	 1.8936855838	 0.7520478867	 0.170017
76.8701	100.6828	254.6508	309.7418	361.5062	436.833	485.686	540.1771	624.9887	684.2757	720.6553	782.7158	865.8248	905.1297	915.7797	936.4126	977.7429	1087.9691	1261.674	1334.9689	1365.4904	1623.3681	1733.6627	1767.7082	1886.2849	3139.7242	3167.481
O=C1C=NOC(=O)N=C1	O=c1cnoc(=O)nc1	
InChI=1S/C4H2N2O3/c7-3-1-5-4(8)9-6-2-3/h1-2H	InChI=1S/C4H2N2O3/c7-3-1-5-4(8)9-6-2-3/h1-2H
