10
gdb 8973	5.63518	1.0399	0.88274	2.5353	54.67	-0.342	-0.0941	0.2479	1151.7647	0.059158	-413.485887	-413.478233	-413.477289	-413.519385	24.726	
O	-0.017229013	-0.0979581063	 0.0035340138	-0.317357
C	 0.0132613538	 1.1001067571	 0.0055826429	 0.379115
O	 1.1159502418	 1.8622977313	-0.0027716044	-0.215707
C	 2.3464497902	 1.1123735073	-0.0151095876	-0.212721
C	 3.4515750273	 2.065028522	-0.0193961096	 0.279451
N	 4.3541756428	 2.7838565524	-0.0231462404	-0.271721
C	-1.180030656	 1.9475852754	 0.018028158	 0.271133
N	-2.155102563	 2.5656189684	 0.0280208627	-0.289864
H	 2.3987336245	 0.4670235271	 0.8669676511	 0.188869
H	 2.3854957215	 0.4745753452	-0.9033646164	 0.188804
33.2599	103.8901	137.5812	213.9026	277.7333	337.091	372.2764	483.4433	557.0897	627.6169	772.4059	898.3352	978.7596	1013.3354	1031.9302	1251.2324	1255.1392	1395.3373	1478.5059	1825.6736	2366.0809	2382.0581	3065.0618	3109.5991
O=C(OCC#N)C#N	O=C(OCC#N)C#N	
InChI=1S/C4H2N2O2/c5-1-2-8-4(7)3-6/h2H2	InChI=1S/C4H2N2O2/c5-1-2-8-4(7)3-6/h2H2
