10
gdb 23829	4.00315	2.00435	1.33561	3.8054	51.67	-0.2745	-0.0908	0.1837	787.5502	0.061819	-454.776823	-454.771024	-454.77008	-454.807087	21.164	
F	 0.0289141814	 0.0690112312	 0.0030193579	-0.04587
C	-0.0306385363	 1.3885887582	 0.0109500327	 0.343935
N	-1.1823728271	 1.9446444579	 0.0293908327	-0.360672
C	-1.2282020055	 3.337686312	 0.0377788315	 0.470756
O	-2.23029746	 4.0052447942	 0.0548022825	-0.353387
N	 0.0423100971	 3.9643557282	 0.0243739951	-0.257684
N	 1.229787194	 3.3774652874	 0.0053625512	-0.110382
C	 1.2261494793	 2.0767072184	-0.0018107752	-0.134016
H	 0.0501703205	 4.9758727809	 0.0298630962	 0.29132
H	 2.1746893068	 1.5572722515	-0.0172211447	 0.156
130.0244	218.7886	375.5968	442.1676	517.978	549.1406	588.8079	700.8595	751.2154	751.9706	789.3519	869.2616	970.3423	1029.7085	1158.9714	1200.1787	1295.9768	1427.4137	1438.7594	1580.4385	1677.3552	1842.0817	3229.7586	3599.1184
FC1=NC(=O)NN=C1	Fc1nc(=O)[nH]nc1	
InChI=1S/C3H2FN3O/c4-2-1-5-7-3(8)6-2/h1H,(H,6,7,8)	InChI=1S/C3H2FN3O/c4-2-1-5-7-3(8)6-2/h1H,(H,6,7,8)
