10
gdb 133479	3.64261	1.2436	1.10702	2.5524	44.97	-0.3267	-0.0553	0.2714	995.6387	0.051413	-599.098301	-599.091489	-599.090545	-599.130964	23.649	
F	 0.3740460734	 0.1434453625	 0.2075692464	-0.061899
C	-0.0314953895	 1.4029137526	 0.0259140731	 0.266162
F	 1.0487868593	 2.1518624453	-0.2103798647	-0.061923
F	-0.8218511214	 1.4461462923	-1.0424229897	-0.049044
C	-0.7515229962	 1.900503148	 1.2546358319	 0.196341
N	-1.9892860548	 2.3097292429	 1.2179289223	-0.15097
O	-2.2352049205	 2.6674100375	 2.5414734716	-0.140769
C	-1.1064900227	 2.4269769996	 3.2136784825	 0.109155
N	-0.1465386014	 1.9526368513	 2.4859677284	-0.290951
H	-1.1043100863	 2.6459064979	 4.2711667182	 0.183898
37.3564	152.2837	186.8728	371.1635	392.0519	410.0407	556.2448	583.8517	638.1924	758.1093	791.095	907.3882	929.7895	985.9393	995.3197	1137.0998	1175.622	1205.9734	1234.9186	1309.809	1407.7882	1529.2633	1597.1319	3274.2542
FC(F)(F)C1=NOC=N1	FC(F)(F)c1nocn1	
InChI=1S/C3HF3N2O/c4-3(5,6)2-7-1-9-8-2/h1H	InChI=1S/C3HF3N2O/c4-3(5,6)2-7-1-9-8-2/h1H
