10
gdb 21432	3.3317	2.60488	1.4619	4.6465	52.11	-0.2926	-0.081	0.2116	745.8506	0.060182	-450.577594	-450.571381	-450.570436	-450.608552	22.038	
N	-0.0186213942	 1.2298280936	 0.3792399919	-0.445605
C	-0.0123832707	 0.0284338387	 0.0191355102	 0.26364
O	 1.1487437883	-0.6192642129	-0.3712545015	-0.204157
C	 1.0696931996	-1.9139121087	-0.7453391231	 0.157464
N	 0.0493720876	-2.6666487406	-0.7977620885	-0.110456
O	-1.1800686115	-2.0886289336	-0.4162457872	-0.245926
C	-1.2842452913	-0.7859456649	-0.0084685409	 0.417642
O	-2.3499582555	-0.3548322372	 0.3007367033	-0.263164
H	 0.9190855031	 1.634554615	 0.3411858944	 0.250902
H	 2.0273633045	-2.3300055195	-1.0322418286	 0.179659
74.625	136.2397	353.6625	429.9526	494.9204	523.0229	550.4939	564.9883	704.4306	788.3058	913.003	929.9719	934.7354	974.5358	981.843	1097.6886	1222.2376	1298.887	1363.9867	1715.7475	1767.1735	1880.876	3233.9419	3481.6559
N=C1OC=NOC1=O	[NH][C]1OC=NOC1=O	
InChI=1S/C3H2N2O3/c4-2-3(6)8-5-1-7-2/h1,4H	InChI=1S/C3H2N2O3/c4-2-3(6)8-5-1-7-2/h1,4H
