11
gdb 23691	3.75963	2.06126	1.33134	1.4725	58.61	-0.2373	-0.0726	0.1647	808.338	0.072473	-438.698536	-438.692499	-438.691555	-438.728947	22.465	
F	 0.0757163702	 0.0498037308	 0.0933119763	-0.028627
C	-0.0822968274	 1.3438537572	-0.0397019544	 0.354875
C	-1.2308516232	 2.0055722056	 0.1728589946	-0.2447
N	-1.2730098193	 3.3794433521	-0.0014235474	-0.208135
C	-0.1975802396	 3.98375432	-0.3655867288	-0.02208
C	 1.0827555458	 3.3207218745	-0.6127271021	 0.364012
N	 2.1388528093	 3.9138220677	-0.9701843013	-0.51092
O	 1.0558812553	 1.9261469472	-0.4174503712	-0.228949
H	-2.1306182318	 1.4918297858	 0.4786237069	 0.138385
H	-0.2055962697	 5.0601677369	-0.5086404196	 0.148611
H	 2.9191681102	 3.2677052322	-1.0880820231	 0.237527
126.9572	209.5798	339.2628	436.5468	491.901	513.3825	566.1697	660.4021	725.9381	733.109	826.2402	858.2728	903.6167	937.1623	1007.0477	1064.7306	1138.5866	1234.4954	1301.2391	1370.6757	1409.9367	1598.3116	1689.1263	1748.2633	3184.7257	3236.6824	3499.7237
FC1=CN=CC(=N)O1	FC1=C[N]C=C([NH])O1	
InChI=1S/C4H3FN2O/c5-3-1-7-2-4(6)8-3/h1-2,6H	InChI=1S/C4H3FN2O/c5-3-1-7-2-4(6)8-3/h1-2,6H
