11
gdb 21823	6.28439	1.4899	1.20437	6.0318	57.4	-0.2562	-0.0498	0.2064	890.2732	0.071969	-430.710275	-430.703581	-430.702637	-430.741946	23.236	
O	-0.2921816718	-0.0120069302	 0.0021201139	-0.254878
C	-0.099532645	 1.1716017896	 0.008478555	 0.153562
N	 1.1440491132	 1.7942561417	 0.001949605	-0.407908
C	 2.3862554472	 1.2022856577	-0.0127638355	 0.527445
C	 3.6275657285	 1.7895427422	-0.0191401031	-0.228885
N	 4.5293910751	 0.7644836298	-0.034200745	-0.085841
N	 3.9753793364	-0.3537566226	-0.0374253136	-0.014888
O	 2.511319034	-0.1076074562	-0.0229153902	-0.198899
H	-0.901590024	 1.9337931104	 0.020643828	 0.0996
H	 1.1440730772	 2.8034768021	 0.0088911308	 0.274356
H	 3.9186020691	 2.8253874155	-0.0142804654	 0.136337
50.625	158.9843	196.855	333.99	361.1726	518.1161	559.6821	625.4752	677.1941	733.3791	758.4887	874.5357	971.9034	1018.7561	1026.4896	1120.6614	1137.2145	1307.4822	1385.1457	1440.225	1483.7116	1514.0188	1621.4494	1845.4677	2959.3082	3289.647	3620.9433
O=CNC1=CN=NO1	O=CNc1cnno1	
InChI=1S/C3H3N3O2/c7-2-4-3-1-5-6-8-3/h1-2H,(H,4,7)	InChI=1S/C3H3N3O2/c7-2-4-3-1-5-6-8-3/h1-2H,(H,4,7)
