11
gdb 21982	5.49819	1.71123	1.30505	6.275	56.08	-0.2825	-0.0766	0.2059	830.7642	0.074109	-430.6521	-430.64606	-430.645116	-430.682885	21.646	
O	-0.0658281504	 0.0282721935	 0.0044288274	-0.368389
N	-0.039703238	 1.255466645	 0.0064004373	 0.372293
O	 0.961992046	 1.950106965	 0.0028834644	-0.344505
C	-1.3357937583	 1.9103641878	 0.0171810246	 0.435151
N	-1.4194824355	 3.2333447006	 0.0214420706	-0.252688
N	-2.7372706806	 3.4502092283	 0.0310805073	-0.167383
C	-3.481251984	 2.3108735548	 0.0330625576	-0.004578
C	-2.5870916156	 1.2645237221	 0.0240393331	-0.269487
H	-3.0677057579	 4.401749775	 0.0359427108	 0.293364
H	-4.5591100707	 2.3374808038	 0.0405536067	 0.155957
H	-2.7819514951	 0.207332884	 0.0224573002	 0.150266
69.9477	223.6053	238.1731	440.0428	541.3024	576.9894	634.7659	691.0872	774.8631	806.3126	838.8471	874.2092	942.224	992.3016	1066.7385	1097.7383	1231.5457	1278.2294	1405.6268	1417.9116	1444.6459	1490.0576	1564.9391	1647.1795	3270.3467	3309.7719	3660.65
O=N(=O)C1=NNC=C1	O=N(=O)c1n[nH]cc1	
InChI=1S/C3H3N3O2/c7-6(8)3-1-2-4-5-3/h1-2H,(H,4,5)	InChI=1S/C3H3N3O2/c7-6(8)3-1-2-4-5-3/h1-2H,(H,4,5)
