11
gdb 21571	4.24449	1.92976	1.32688	6.2519	58.03	-0.255	-0.0891	0.1659	822.0447	0.071642	-430.704396	-430.697649	-430.696705	-430.735289	24.745	
N	 0.0338367369	 1.3600355255	 0.0875763623	-0.554488
C	-0.0620712087	 0.0114493923	 0.0300133223	 0.480269
C	-1.2090551852	-0.7208972531	 0.0158333188	-0.385613
C	-1.1279031834	-2.148227754	-0.0109500154	 0.486139
O	-2.0111891292	-2.9585416688	-0.0238362347	-0.339421
O	 0.2027945073	-2.6505955445	-0.0258638677	-0.255734
N	 1.3265056971	-1.8378132226	-0.0201146879	 0.079001
N	 1.2002147587	-0.6027817955	 0.0078885596	-0.194742
H	 0.9411040152	 1.7725728872	-0.0506098505	 0.281887
H	-0.7793251039	 1.9365278018	-0.0389438521	 0.277484
H	-2.1933071046	-0.2702961083	 0.0272667453	 0.125217
145.9866	158.8947	231.8787	348.694	439.4979	450.5282	480.7262	532.8199	552.1666	716.3434	745.4037	760.9813	811.5014	849.6818	911.8585	979.2002	1072.1164	1202.3234	1316.2395	1403.6046	1573.5646	1625.0785	1696.4598	1866.8608	3213.9896	3616.5131	3744.2494
NC1=CC(=O)ON=N1	NC1=N[N]OC(=O)[CH]1	
InChI=1S/C3H3N3O2/c4-2-1-3(7)8-6-5-2/h1H,4H2	InChI=1S/C3H3N3O2/c4-2-1-3(7)8-6-5-2/h1H,4H2
