11
gdb 133405	2.35758	1.85672	1.03869	2.8855	57.46	-0.2526	-0.0694	0.1832	987.9193	0.065714	-537.954441	-537.947642	-537.946698	-537.985949	25.066	
F	 0.0464426681	 0.0172970732	 0.0028195872	-0.041418
C	-0.0233304272	 1.3406139435	 0.0109044162	 0.150422
C	-1.2183735369	 1.98461036	 0.0305447623	 0.049993
F	-2.3642576046	 1.3350475726	 0.0425338017	-0.024846
C	-1.2705595849	 3.4417827522	 0.0391384097	 0.337405
O	-2.2720098724	 4.12720453	 0.0563695809	-0.373315
N	 0.014932313	 4.0015780007	 0.0247459123	-0.270031
N	 1.2043287425	 3.3906162964	 0.0053617105	-0.178267
C	 1.1886753967	 2.0898364099	-0.001442218	-0.089374
H	 0.0506479422	 5.0130427191	 0.0297199459	 0.285574
H	 2.1426549535	 1.5769538822	-0.0171053587	 0.153857
129.199	208.4238	269.8287	300.1648	323.0902	474.7075	528.3605	558.8788	582.6776	639.7761	692.7207	736.4301	751.213	872.5546	884.9289	1086.1789	1158.8901	1229.1176	1286.0837	1351.2799	1428.8692	1453.0094	1594.7997	1700.778	1797.6519	3212.9997	3592.6124
FC1=C(F)C(=O)NN=C1	Fc1c(F)c(=O)[nH]nc1	
InChI=1S/C4H2F2N2O/c5-2-1-7-8-4(9)3(2)6/h1H,(H,8,9)	InChI=1S/C4H2F2N2O/c5-2-1-7-8-4(9)3(2)6/h1H,(H,8,9)
