11
gdb 132222	2.05794	1.89476	0.98649	5.7236	55.86	-0.2628	-0.0387	0.2241	1041.8884	0.065216	-533.838969	-533.831978	-533.831034	-533.870764	25.643	
O	 0.1049082072	 1.3097513107	 0.0072681708	-0.393546
C	-0.0254734059	-0.0129298477	 0.0008555495	 0.498483
C	-1.1808196668	-0.691851359	 0.0034974912	-0.380089
C	-1.1657249782	-2.1534325677	-0.004440567	 0.405623
O	-2.1536016958	-2.845537339	-0.0028103075	-0.333679
N	 0.1392017499	-2.7539222177	-0.0148787191	-0.400915
C	 1.1388261057	-2.0006323121	-0.0162182701	 0.412367
F	 2.3684933748	-2.4431375125	-0.0255122772	-0.034028
O	 1.1892208979	-0.6447833978	-0.0091789943	-0.240358
H	 1.0435355514	 1.539814064	 0.0033378237	 0.321977
H	-2.1240664801	-0.1659631812	 0.01147565	 0.144165
124.7164	188.248	208.9207	332.4996	344.3179	391.1638	493.7358	544.277	631.5756	643.0428	668.5171	718.2971	770.1529	856.1033	905.4453	988.9768	1037.5428	1180.5272	1220.2049	1279.5155	1327.7695	1414.0763	1703.5236	1782.023	1829.5328	3250.0419	3791.8859
OC1=CC(=O)N=C(F)O1	Oc1cc(=O)nc(F)o1	
InChI=1S/C4H2FNO3/c5-4-6-2(7)1-3(8)9-4/h1,8H	InChI=1S/C4H2FNO3/c5-4-6-2(7)1-3(8)9-4/h1,8H
