9
gdb 128877	2.07883	1.90518	0.99411	1.8457	64.48	-0.3237	-0.1305	0.1932	1028.8825	0.042406	-446.50805	-446.501142	-446.500198	-446.539967	23.942	
N	 0.1210356523	-1.1694481857	-0.0053414657	-0.298803
C	 0.0506759943	-0.0150949298	 0.0018877044	 0.279504
C	-0.053767879	 1.3933919435	 0.0113655998	 0.286588
C	-1.1422620209	 2.2291586174	 0.031254405	 0.088798
N	-0.6391809519	 3.5158394367	 0.0316069241	-0.138865
N	 0.6104165814	 3.5031882181	 0.0141593625	 0.03337
O	 1.0495326139	 2.1354825042	 0.0004490871	-0.203305
C	-2.5228787756	 1.9258851916	 0.0486605806	 0.258702
N	-3.6493042744	 1.6649849641	 0.0627838822	-0.305988
106.731	164.5162	195.6978	213.3147	455.4436	476.8133	512.9932	541.7572	584.0192	647.1114	683.5272	684.7977	779.742	1004.2364	1155.3929	1228.3167	1371.5418	1482.9243	1594.9595	2360.5517	2369.6329
N#CC1=C(N=NO1)C#N	N#Cc1c(nno1)C#N	
InChI=1S/C4N4O/c5-1-3-4(2-6)9-8-7-3	InChI=1S/C4N4O/c5-1-3-4(2-6)9-8-7-3
