10
gdb 123296	2.0561	1.91641	0.9919	4.0004	70.74	-0.2888	-0.1015	0.1873	1050.7637	0.053107	-430.416369	-430.409176	-430.408232	-430.448425	25.715	
C	 0.1278884258	-1.2053629809	-0.0058423967	-0.364191
C	 0.054708947	-0.0051108146	 0.0019456885	 0.265991
C	-0.0489853199	 1.3921712053	 0.0112749461	 0.260631
C	-1.1379757739	 2.2354314604	 0.0312755248	 0.054315
N	-0.6434066278	 3.5227742153	 0.031532541	-0.145211
N	 0.6073196366	 3.5156374768	 0.0140640988	 0.005564
O	 1.049525931	 2.1476956778	 0.00004642	-0.215954
C	-2.5160149749	 1.9228540004	 0.0488246374	 0.231947
N	-3.6396456755	 1.6479859168	 0.0630136832	-0.323748
H	 0.1888853816	-2.2672113472	-0.0126701731	 0.230656
103.8747	162.599	192.0611	206.5431	426.6154	456.8036	519.4254	541.8712	589.1595	656.4738	671.6297	685.3637	685.4366	704.814	787.0111	1005.3531	1164.7784	1220.1593	1372.6701	1479.0408	1581.0215	2246.1529	2361.5892	3490.7656
C#CC1=C(N=NO1)C#N	C#Cc1c(nno1)C#N	
InChI=1S/C5HN3O/c1-2-5-4(3-6)7-8-9-5/h1H	InChI=1S/C5HN3O/c1-2-5-4(3-6)7-8-9-5/h1H
