11
gdb 43613	2.43326	1.45914	1.05938	2.8557	61.18	-0.3263	-0.0681	0.2581	1060.339	0.064639	-451.569056	-451.561389	-451.560445	-451.601787	26.95	
O	 0.0877744944	 0.2224910572	-0.8109601357	-0.268299
C	-0.0499666664	 1.2167481926	-0.1921962638	 0.464869
C	-1.1839817591	 2.1192606939	 0.2873605804	-0.453604
C	-0.0221999872	 2.9546668186	 0.9111853187	 0.132833
O	 0.9480878269	 1.9980462794	 0.3840125498	-0.241291
C	 0.1716213213	 4.2874114327	 0.3360967768	 0.289614
N	 0.2961458061	 5.3329648186	-0.1367057988	-0.29602
C	 0.0057697912	 2.9957332602	 2.3747535187	 0.289614
N	-0.0020591692	 3.0104932402	 3.5288554788	-0.296019
H	-1.7405190184	 2.6211803588	-0.503821131	 0.189152
H	-1.8634582996	 1.6637071677	 1.0073666761	 0.189151
84.5523	128.4765	179.8572	194.7715	279.3272	458.8762	485.2294	504.0022	524.3816	525.8775	588.8492	620.6555	803.977	888.3192	913.2172	953.0576	1073.8819	1112.3198	1129.518	1232.8824	1233.8493	1445.2077	1983.1648	2371.5675	2373.6199	3108.3147	3175.5505
O=C1CC(O1)(C#N)C#N	O=C1CC(O1)(C#N)C#N	
InChI=1S/C5H2N2O2/c6-2-5(3-7)1-4(8)9-5/h1H2	InChI=1S/C5H2N2O2/c6-2-5(3-7)1-4(8)9-5/h1H2
